<?xml version="1.0" encoding="UTF-8"?>

<!--
    Monaco SUMO Traffic (MoST) Scenario
    Copyright (C) 2018
    Lara CODECA

    This program is free software: you can redistribute it and/or modify
    it under the terms of the GNU General Public License as published by
    the Free Software Foundation, either version 3 of the License, or
    (at your option) any later version.

    This program is distributed in the hope that it will be useful,
    but WITHOUT ANY WARRANTY; without even the implied warranty of
    MERCHANTABILITY or FITNESS FOR A PARTICULAR PURPOSE.  See the
    GNU General Public License for more details.

    You should have received a copy of the GNU General Public License
    along with this program.  If not, see <http://www.gnu.org/licenses/>.
-->

<additional xmlns:xsi="http://www.w3.org/2001/XMLSchema-instance" xsi:noNamespaceSchemaLocation="http://sumo.dlr.de/xsd/additional_file.xsd"> 
    <ptLine id="34" name="MoSTtoItaly" line="M0:Italy" type="train">
        <route edges="13242_0 13242_0 13242_0 13242_0 13250#1_0 13250#1_0"/>
        <busStop id="117852" name="Carnoles"/>
        <busStop id="117851" name="Roquebrune-Cap-Martin"/>
        <busStop id="117820" name="Monte-Carlo Country Club"/>
        <busStop id="117850" name="Monaco - Monte Carlo"/>
        <busStop id="117838" name="Cap d'Ail"/>
        <busStop id="117809" name="Eze"/>
    </ptLine> 
    <ptLine id="41" name="MoSTtoFrance" line="M0:France" type="train">
        <route edges="13251_0 13251_0 13251_0 13233#1_0 13233#1_0 13233#1_0"/>
        <busStop id="117839" name="Eze"/>
        <busStop id="117818" name="Cap d'Ail"/>
        <busStop id="117814" name="Monaco - Monte Carlo"/>
        <busStop id="117899" name="Monte-Carlo Country Club"/>
        <busStop id="117811" name="Roquebrune-Cap-Martin"/>
        <busStop id="117804" name="Carnoles"/>
    </ptLine> 
</additional>
