<?xml version="1.0" encoding="UTF-8"?>

<!-- Generated with Monaco SUMO Traffic (MoST) Scenario [https://github.com/lcodeca/MoSTScenario] -->

<additional xmlns:xsi="http://www.w3.org/2001/XMLSchema-instance" xsi:noNamespaceSchemaLocation="http://sumo.dlr.de/xsd/additional_file.xsd"> 
    <ptLine id="131211" name="MoSTtoFrance1" line="M1:France" type="bus">
        <route edges="152927_1 -152903_1 153460_1"/>
        <busStop id="131173" name="Parking Saint-Laurent d'Eze"/>
        <busStop id="131031" name="Chapelle de Saint-Laurent"/>
        <busStop id="131169" name="131169"/>
    </ptLine> 
    <ptLine id="131212" name="MoSTtoEze" line="M1:Eze" type="bus">
        <route edges="-153460_1 152903_1 -152927_1"/>
        <busStop id="131168" name="131168"/>
        <busStop id="131163" name="Chapelle de Saint-Laurent"/>
        <busStop id="131172" name="Parking Saint-Laurent d'Eze"/>
    </ptLine> 
    <ptLine id="131214" name="MoSTtoFrance2" line="M2:France" type="bus">
        <route edges="-153424#0_1 153460_1"/>
        <busStop id="131165" name="La Turbie Marie"/>
        <busStop id="131169" name="131169"/>
    </ptLine> 
    <ptLine id="131215" name="MoSTtoPontUnion" line="M5:PontUnion" type="bus">
        <route edges="152993#0_1 153357#1_1 153357#1_1 -152957_1 -152957_1 -152957_1 152554_1 152554_1"/>
        <busStop id="131159" name="Ramingao"/>
        <busStop id="131156" name="2e Escalier"/>
        <busStop id="131154" name="1er Escalier"/>
        <busStop id="131152" name="Massolin"/>
        <busStop id="131079" name="Cypris"/>
        <busStop id="131078" name="Orchidees"/>
        <busStop id="131076" name="Victoria"/>
        <busStop id="131195" name="Pont de l'Union"/>
    </ptLine> 
    <ptLine id="131216" name="MoSTtoRamingao" line="M5:Ramingao" type="bus">
        <route edges="153656_1 153656_1 -152555_1 -152555_1 -153357#1_1 -153357#1_1 -152993#0_1"/>
        <busStop id="131141" name="Pont de l'Union"/>
        <busStop id="131199" name="131199"/>
        <busStop id="131077" name="Le Cirta"/>
        <busStop id="131075" name="Mairie"/>
        <busStop id="131153" name="1er Escalier"/>
        <busStop id="131155" name="2e Escalier"/>
        <busStop id="131160" name="Ramingao"/>
    </ptLine> 
    <ptLine id="131217" name="HospitalToTurbie" line="M3:Turbie" type="bus">
        <route edges="152870#5_1 -152166_1 -152330#2_1 -152330#0_1 -152409#0_1 -152908#6_1 153433#1_1"/>
        <busStop id="131087" name="Hopital"/>
        <busStop id="131022" name="131022"/>
        <busStop id="131033" name="131033"/>
        <busStop id="131039" name="131039"/>
        <busStop id="131024" name="131024"/>
        <busStop id="131040" name="131040"/>
        <busStop id="131042" name="La Turbie Marie"/>
    </ptLine> 
    <ptLine id="131218" name="TurbieToHospital" line="M3:Hospital" type="bus">
        <route edges="153451#7_1 152908#6_1 152908#8_1 152330#0_1 152330#2_1 152166_1 152899#1_1"/>
        <busStop id="131030" name="La Turbie Marie"/>
        <busStop id="131038" name="131038"/>
        <busStop id="131020" name="131020"/>
        <busStop id="131019" name="131019"/>
        <busStop id="131037" name="131037"/>
        <busStop id="131029" name="131029"/>
        <busStop id="131056" name="Hopital"/>
    </ptLine> 
    <ptLine id="131219" name="MoSTtoLaTurbie" line="M2:Turbie" type="bus">
        <route edges="-153460_1 153451#7_1"/>
        <busStop id="131168" name="131168"/>
        <busStop id="131030" name="La Turbie Marie"/>
    </ptLine> 
    <ptLine id="131221" name="MoSTtoTrain" line="M4:Train" type="bus">
        <route edges="-152909_1 153476#18_1 -153010#0_1 -152920#2_1"/>
        <busStop id="131181" name="L'Eglise"/>
        <busStop id="131179" name="La Source"/>
        <busStop id="131035" name="Les Cigognes"/>
        <busStop id="131196" name="Bois Joli"/>
    </ptLine> 
    <ptLine id="131222" name="MoSTtoHotelVille" line="M4:HotelVille" type="bus">
        <route edges="152920#2_1 153010#0_1 -153476#20_1 -153476#16_1 -153476#13_1"/>
        <busStop id="131027" name="Bois Joli"/>
        <busStop id="131197" name="Les Cigognes"/>
        <busStop id="131178" name="Guillaume Apollinaire"/>
        <busStop id="131180" name="L'Eglise"/>
        <busStop id="131182" name="Hotel de Ville"/>
    </ptLine> 
    <ptLine id="131223" name="Bus 1: Monaco Ville (le Rocher) - Saint-Roman" line="1:SaintRoman" type="bus">
        <route edges="-152773_1 152802_1 152387_1 152816#3_1 152816#5_1 152787#1_1 152762_1 152654#2_1 152677#0_1 152677#3_1 152677#5_1 152667#3_1 152667#7_1 152667#11_1 152605#2_1 -152582#3_1 152349_1"/>
        <busStop id="131117" name="Monaco Ville (le Rocher)"/>
        <busStop id="131119" name="Place d'Armes (Port)"/>
        <busStop id="131045" name="Princesse Stephanie"/>
        <busStop id="131093" name="Stade Nautique"/>
        <busStop id="131094" name="Princesse Antoinette"/>
        <busStop id="131095" name="Kennedy"/>
        <busStop id="131096" name="Auditorium Rainier III"/>
        <busStop id="131044" name="Portier"/>
        <busStop id="131052" name="Spelugues"/>
        <busStop id="131051" name="Citronniers"/>
        <busStop id="131060" name="Place du Casino"/>
        <busStop id="131058" name="Monte-Carlo (Tourisme)"/>
        <busStop id="131062" name="Saint-Charles"/>
        <busStop id="131130" name="Place des Moulins"/>
        <busStop id="131128" name="La Rousse"/>
        <busStop id="131126" name="Carmes"/>
        <busStop id="131167" name="Saint-Roman (Bus 1)"/>
    </ptLine> 
    <ptLine id="131224" name="Bus 1: Saint-Roman - Monaco Ville (le Rocher)" line="1:Monaco" type="bus">
        <route edges="152349_1 152582#4_1 -152605#1_1 -152605#0_1 -152653_1 152702#1_1 152672#2_1 152810#0_1 152820_1 152820_1 152802_1 -152773_1"/>
        <busStop id="131167" name="Saint-Roman (Bus 1)"/>
        <busStop id="131134" name="Carmes"/>
        <busStop id="131125" name="La Rousse"/>
        <busStop id="131129" name="Place des Moulins"/>
        <busStop id="131135" name="Saint-Charles"/>
        <busStop id="131063" name="Monte-Carlo"/>
        <busStop id="131064" name="Square Beaumarchais"/>
        <busStop id="131133" name="Ostende"/>
        <busStop id="131061" name="Place Sainte-Devote (Gare)"/>
        <busStop id="131123" name="Princesse Florestine"/>
        <busStop id="131119" name="Place d'Armes (Port)"/>
        <busStop id="131117" name="Monaco Ville (le Rocher)"/>
    </ptLine> 
    <ptLine id="131225" name="Bus 2: Monaco Ville (le Rocher) - Jardin Exotique" line="2:Jardin" type="bus">
        <route edges="-152773_1 152802_1 152387_1 152816#3_1 152816#5_1 -152810#1_1 152775#0_1 152667#3_1 152174#0_1 -152701#3_1 152229_1 -152814#10_1 -152814#7_1 -152814#4_1 -152814#3_1 152896_1"/>
        <busStop id="131117" name="Monaco Ville (le Rocher)"/>
        <busStop id="131119" name="Place d'Armes (Port)"/>
        <busStop id="131045" name="Princesse Stephanie"/>
        <busStop id="131093" name="Stade Nautique"/>
        <busStop id="131094" name="Princesse Antoinette"/>
        <busStop id="131097" name="Ostende"/>
        <busStop id="131092" name="Terrasses du Casino"/>
        <busStop id="131058" name="Monte-Carlo (Tourisme)"/>
        <busStop id="131091" name="Cremaillere"/>
        <busStop id="131098" name="Roqueville"/>
        <busStop id="131048" name="Pont Sainte-Devote"/>
        <busStop id="131120" name="Belgique"/>
        <busStop id="131099" name="Moneghetti"/>
        <busStop id="131136" name="Rotondes"/>
        <busStop id="131050" name="Villa Paloma"/>
        <busStop id="131138" name="Jardin Exotique"/>
    </ptLine> 
    <ptLine id="131226" name="Bus 2: Jardin Exotique - Monaco Ville (le Rocher)" line="2:Monaco" type="bus">
        <route edges="152896_1 152814#3_1 152814#3_1 152814#6_1 152814#10_1 152701#0_1 152701#4_1 152702#1_1 152672#2_1 152810#0_1 152820_1 152820_1 -152817#2_1 -152773_1"/>
        <busStop id="131138" name="Jardin Exotique"/>
        <busStop id="131049" name="Villa Paloma"/>
        <busStop id="131139" name="Rotondes"/>
        <busStop id="131070" name="Moneghetti"/>
        <busStop id="131113" name="Belgique"/>
        <busStop id="131080" name="Pont Sainte-Devote"/>
        <busStop id="131202" name="Roqueville"/>
        <busStop id="131063" name="Monte-Carlo"/>
        <busStop id="131064" name="Square Beaumarchais"/>
        <busStop id="131133" name="Ostende"/>
        <busStop id="131061" name="Place Sainte-Devote (Gare)"/>
        <busStop id="131123" name="Princesse Florestine"/>
        <busStop id="131085" name="Place d'Armes (vers Monaco Ville)"/>
        <busStop id="131117" name="Monaco Ville (le Rocher)"/>
    </ptLine> 
    <ptLine id="131227" name="Bus 4: Fontvieille - Centre Commercial - Saint-Roman" line="4:SaintRoman" type="bus">
        <route edges="153639_1 152451_1 152646_1 -152873#3_1 152983_1 152418_1 152821#2_1 -152969#0_1 -152969#0_1 152701#0_1 152701#4_1 152667#3_1 152667#7_1 152667#11_1 152605#2_1 -152582#3_1 -152349_1"/>
        <busStop id="131089" name="Fontvieille - Centre Commercial"/>
        <busStop id="131103" name="Papalins"/>
        <busStop id="131059" name="Roseraie"/>
        <busStop id="131102" name="Heliport"/>
        <busStop id="131203" name="Stade Louis II"/>
        <busStop id="131189" name="Cimetiere"/>
        <busStop id="131116" name="Place d'Armes (Charles III)"/>
        <busStop id="131101" name="Castelleretto"/>
        <busStop id="131036" name="Louis Aureglia"/>
        <busStop id="131080" name="Pont Sainte-Devote"/>
        <busStop id="131202" name="Roqueville"/>
        <busStop id="131058" name="Monte-Carlo (Tourisme)"/>
        <busStop id="131062" name="Saint-Charles"/>
        <busStop id="131130" name="Place des Moulins"/>
        <busStop id="131128" name="La Rousse"/>
        <busStop id="131126" name="Carmes"/>
        <busStop id="131086" name="Saint-Roman (Bus 4)"/>
    </ptLine> 
    <ptLine id="131228" name="Bus 4: Saint-Roman - Fontvieille - Centre Commercial" line="4:Fontvieille" type="bus">
        <route edges="-152349_1 153376_1 152582#0_1 152582#4_1 -152605#1_1 -152605#0_1 -152653_1 152174#0_1 -152701#3_1 152229_1 152969#0_1 152969#2_1 -152795#1_1 152802_1 152789#0_1 153639_1"/>
        <busStop id="131086" name="Saint-Roman (Bus 4)"/>
        <busStop id="131082" name="Varavilla"/>
        <busStop id="131164" name="Saint-Roman"/>
        <busStop id="131134" name="Carmes"/>
        <busStop id="131125" name="La Rousse"/>
        <busStop id="131129" name="Place des Moulins"/>
        <busStop id="131135" name="Saint-Charles"/>
        <busStop id="131091" name="Cremaillere"/>
        <busStop id="131098" name="Roqueville"/>
        <busStop id="131048" name="Pont Sainte-Devote"/>
        <busStop id="131100" name="Louis Aureglia"/>
        <busStop id="131046" name="Castelleretto"/>
        <busStop id="131047" name="Honore II"/>
        <busStop id="131119" name="Place d'Armes (Port)"/>
        <busStop id="131122" name="Princesse Stephanie"/>
        <busStop id="131089" name="Fontvieille - Centre Commercial"/>
    </ptLine> 
    <ptLine id="131229" name="Bus 5: Larvotto - Hopital" line="5:Hopital" type="bus">
        <route edges="152534#7_1 152535#0_1 152535#2_1 152535#4_1 152535#6_1 152677#0_1 152677#3_1 152677#5_1 152667#3_1 152174#0_1 -152701#3_1 152229_1 -152945#2_1 -152945#0_1 152870#3_1 152870#5_1 -152938#0_1 152899#1_1"/>
        <busStop id="131084" name="Larvotto"/>
        <busStop id="131210" name="Sea Club"/>
        <busStop id="131081" name="Plages"/>
        <busStop id="131111" name="Grimaldi Forum/Villa Sauber"/>
        <busStop id="131083" name="Portier"/>
        <busStop id="131052" name="Spelugues"/>
        <busStop id="131051" name="Citronniers"/>
        <busStop id="131060" name="Place du Casino"/>
        <busStop id="131058" name="Monte-Carlo (Tourisme)"/>
        <busStop id="131091" name="Cremaillere"/>
        <busStop id="131098" name="Roqueville"/>
        <busStop id="131048" name="Pont Sainte-Devote"/>
        <busStop id="131204" name="Belgique"/>
        <busStop id="131108" name="Bosio"/>
        <busStop id="131200" name="Parc Princesse Antoinette"/>
        <busStop id="131087" name="Hopital"/>
        <busStop id="131057" name="Athanee"/>
        <busStop id="131056" name="Hopital"/>
    </ptLine> 
    <ptLine id="131230" name="Bus 5: Hopital - Larvotto" line="5:Larvotto" type="bus">
        <route edges="152899#1_1 -152870#4_1 -152870#3_1 -152870#0_1 152945#2_1 152701#0_1 152701#4_1 152667#3_1 -152677#4_1 -152677#0_1 152654#2_1 152534#2_1 152534#4_1 152534#6_1 152534#7_1"/>
        <busStop id="131056" name="Hopital"/>
        <busStop id="131106" name="Observatoire"/>
        <busStop id="131201" name="Parc Princesse Antoinette"/>
        <busStop id="131107" name="Bosio"/>
        <busStop id="131124" name="Belgique"/>
        <busStop id="131080" name="Pont Sainte-Devote"/>
        <busStop id="131202" name="Roqueville"/>
        <busStop id="131058" name="Monte-Carlo (Tourisme)"/>
        <busStop id="131127" name="Place du Casino"/>
        <busStop id="131088" name="Spelugues"/>
        <busStop id="131044" name="Portier"/>
        <busStop id="131109" name="Grimaldi Forum/Villa Sauber"/>
        <busStop id="131132" name="Plages"/>
        <busStop id="131110" name="Sea Club"/>
        <busStop id="131084" name="Larvotto"/>
    </ptLine> 
    <ptLine id="131231" name="Bus 6: Fontvieille - Centre Commercial - Larvotto" line="6:Larvotto" type="bus">
        <route edges="153639_1 152451_1 152646_1 -152873#3_1 152983_1 152883#0_1 153638_1 152816#3_1 152816#5_1 -152810#1_1 152775#0_1 152667#3_1 -152677#4_1 -152677#0_1 152654#2_1 152534#2_1 152534#4_1 152534#6_1 152534#7_1"/>
        <busStop id="131089" name="Fontvieille - Centre Commercial"/>
        <busStop id="131103" name="Papalins"/>
        <busStop id="131059" name="Roseraie"/>
        <busStop id="131102" name="Heliport"/>
        <busStop id="131203" name="Stade Louis II"/>
        <busStop id="131209" name="Albert II"/>
        <busStop id="131104" name="Port de Fontvieille"/>
        <busStop id="131093" name="Stade Nautique"/>
        <busStop id="131094" name="Princesse Antoinette"/>
        <busStop id="131097" name="Ostende"/>
        <busStop id="131092" name="Terrasses du Casino"/>
        <busStop id="131058" name="Monte-Carlo (Tourisme)"/>
        <busStop id="131127" name="Place du Casino"/>
        <busStop id="131088" name="Spelugues"/>
        <busStop id="131044" name="Portier"/>
        <busStop id="131109" name="Grimaldi Forum/Villa Sauber"/>
        <busStop id="131132" name="Plages"/>
        <busStop id="131110" name="Sea Club"/>
        <busStop id="131084" name="Larvotto"/>
    </ptLine> 
    <ptLine id="131232" name="Bus 6: Larvotto - Fontvieille - Centre Commercial" line="6:Fontvieille" type="bus">
        <route edges="152534#7_1 152535#0_1 152535#2_1 152535#4_1 152535#6_1 152677#0_1 152677#3_1 152677#5_1 152702#1_1 152672#2_1 152810#0_1 152820_1 152820_1 152802_1 152789#0_1 153639_1"/>
        <busStop id="131084" name="Larvotto"/>
        <busStop id="131210" name="Sea Club"/>
        <busStop id="131081" name="Plages"/>
        <busStop id="131111" name="Grimaldi Forum/Villa Sauber"/>
        <busStop id="131083" name="Portier"/>
        <busStop id="131052" name="Spelugues"/>
        <busStop id="131051" name="Citronniers"/>
        <busStop id="131060" name="Place du Casino"/>
        <busStop id="131063" name="Monte-Carlo"/>
        <busStop id="131064" name="Square Beaumarchais"/>
        <busStop id="131133" name="Ostende"/>
        <busStop id="131061" name="Place Sainte-Devote (Gare)"/>
        <busStop id="131123" name="Princesse Florestine"/>
        <busStop id="131119" name="Place d'Armes (Port)"/>
        <busStop id="131122" name="Princesse Stephanie"/>
        <busStop id="131089" name="Fontvieille - Centre Commercial"/>
    </ptLine> 
    <ptLine id="131233" name="100 Nice a Menton" line="100:Menton" type="bus">
        <route edges="152927_1 152927_1 153477#0_1 153477#1_1 -153476#24_1 -153476#20_1 -153476#16_1 -153476#13_1 -153476#8_1 -153476#6_1 152538#0_1 152821#2_1 152667#3_1 153365#0_1 153365#4_1 153323#4_1 153323#4_1 153357#0_1 153357#1_1 153357#1_1 153357#2_1 153492_1 -153012#0_1 -153012#0_1 -153012#0_1 -153012#0_1 -153012#0_1 153353_1"/>
        <busStop id="131171" name="Cap Estel"/>
        <busStop id="131173" name="Parking Saint-Laurent d'Eze"/>
        <busStop id="131174" name="Gianton"/>
        <busStop id="131162" name="Deux Tunnels"/>
        <busStop id="131177" name="Edmond's Cap d'Ail"/>
        <busStop id="131178" name="Guillaume Apollinaire"/>
        <busStop id="131180" name="L'Eglise"/>
        <busStop id="131182" name="Hotel de Ville"/>
        <busStop id="131185" name="Le Loup Blanc"/>
        <busStop id="131186" name="Liberte"/>
        <busStop id="131188" name="Cimetiere"/>
        <busStop id="131116" name="Place d'Armes (Charles III)"/>
        <busStop id="131043" name="Monte-Carlo (TAM)"/>
        <busStop id="131190" name="Saint-Roman"/>
        <busStop id="131191" name="La Tranchee"/>
        <busStop id="131194" name="La Boucherie"/>
        <busStop id="131161" name="Les 4 Chemins"/>
        <busStop id="131157" name="Datcha"/>
        <busStop id="131156" name="2e Escalier"/>
        <busStop id="131154" name="1er Escalier"/>
        <busStop id="131151" name="Massolin"/>
        <busStop id="131146" name="Torraca"/>
        <busStop id="131149" name="Riva Bella"/>
        <busStop id="131148" name="2e Hameau"/>
        <busStop id="131143" name="1er Hameau"/>
        <busStop id="131142" name="Bien Situee"/>
        <busStop id="131072" name="Casernes"/>
        <busStop id="131071" name="Marche"/>
    </ptLine> 
    <ptLine id="131234" name="100 Menton a Nice" line="100:Nice" type="bus">
        <route edges="152547_1 -152992_1 -152992_1 -152992_1 -152992_1 -153492_1 -153492_1 -153357#1_1 -153357#1_1 -152993#0_1 -152993#0_1 -153323#2_1 -153323#1_1 152582#0_1 -152605#0_1 152702#1_1 152820_1 -152821#2_1 153476#2_1 153476#10_1 153476#13_1 -152909_1 153476#18_1 153476#22_1 -153477#1_1 -153477#1_1 -152927_1 -152927_1"/>
        <busStop id="131140" name="Saint-Joseph"/>
        <busStop id="131069" name="Casernes"/>
        <busStop id="131073" name="Bien Situee"/>
        <busStop id="131144" name="1er Hameau"/>
        <busStop id="131145" name="2e Hameau"/>
        <busStop id="131147" name="Torraca"/>
        <busStop id="131150" name="Massolin"/>
        <busStop id="131153" name="1er Escalier"/>
        <busStop id="131155" name="2e Escalier"/>
        <busStop id="131160" name="Ramingao"/>
        <busStop id="131158" name="Les 4 Chemins"/>
        <busStop id="131193" name="La Boucherie"/>
        <busStop id="131192" name="La Tranchee"/>
        <busStop id="131164" name="Saint-Roman"/>
        <busStop id="131129" name="Place des Moulins"/>
        <busStop id="131090" name="Monte-Carlo (TAM)"/>
        <busStop id="131061" name="Place Sainte-Devote (Gare)"/>
        <busStop id="131074" name="Place d'Armes (TAM)"/>
        <busStop id="131187" name="Liberte"/>
        <busStop id="131184" name="Le Loup Blanc"/>
        <busStop id="131183" name="Hotel de Ville"/>
        <busStop id="131181" name="L'Eglise"/>
        <busStop id="131179" name="La Source"/>
        <busStop id="131068" name="Beaverbrook"/>
        <busStop id="131176" name="Deux Tunnels"/>
        <busStop id="131175" name="Gianton"/>
        <busStop id="131172" name="Parking Saint-Laurent d'Eze"/>
        <busStop id="131170" name="Cap Estel"/>
    </ptLine> 
    <ptLine id="131235" name="Bus 3: Hector Otto - Fontvieille - Centre Commercial" line="3:Fontvieille" type="bus">
        <route edges="152836#6_1 152814#3_1 152814#5_1 152814#6_1 152814#10_1 -152945#2_1 -152945#0_1 152870#3_1 152870#5_1 152938#0_1 152938#2_1 152821#2_1 152802_1 152789#0_1 153639_1"/>
        <busStop id="131112" name="Hector Otto"/>
        <busStop id="131049" name="Villa Paloma"/>
        <busStop id="131137" name="Rotondes"/>
        <busStop id="131070" name="Moneghetti"/>
        <busStop id="131113" name="Belgique"/>
        <busStop id="131204" name="Belgique"/>
        <busStop id="131108" name="Bosio"/>
        <busStop id="131200" name="Parc Princesse Antoinette"/>
        <busStop id="131087" name="Hopital"/>
        <busStop id="131118" name="Athanee"/>
        <busStop id="131055" name="Cimetiere"/>
        <busStop id="131116" name="Place d'Armes (Charles III)"/>
        <busStop id="131119" name="Place d'Armes (Port)"/>
        <busStop id="131122" name="Princesse Stephanie"/>
        <busStop id="131089" name="Fontvieille - Centre Commercial"/>
    </ptLine> 
    <ptLine id="131236" name="Bus 3: Fontvieille - Centre Commercial - Hector Otto" line="3:Otto" type="bus">
        <route edges="153638_1 152816#3_1 152816#5_1 152820_1 152820_1 -152821#2_1 -152938#2_1 -152938#2_1 -152938#0_1 152899#1_1 -152870#4_1 -152870#3_1 -152870#0_1 152945#2_1 -152814#10_1 -152814#7_1 -152814#5_1 -152814#3_1 152836#6_1"/>
        <busStop id="131104" name="Port de Fontvieille"/>
        <busStop id="131093" name="Stade Nautique"/>
        <busStop id="131094" name="Princesse Antoinette"/>
        <busStop id="131061" name="Place Sainte-Devote (Gare)"/>
        <busStop id="131123" name="Princesse Florestine"/>
        <busStop id="131115" name="Place d'Armes (Charles III)"/>
        <busStop id="131026" name="Cimetiere"/>
        <busStop id="131105" name="Pasteur"/>
        <busStop id="131057" name="Athanee"/>
        <busStop id="131056" name="Hopital"/>
        <busStop id="131106" name="Observatoire"/>
        <busStop id="131201" name="Parc Princesse Antoinette"/>
        <busStop id="131107" name="Bosio"/>
        <busStop id="131124" name="Belgique"/>
        <busStop id="131120" name="Belgique"/>
        <busStop id="131099" name="Moneghetti"/>
        <busStop id="131021" name="Rotondes"/>
        <busStop id="131050" name="Villa Paloma"/>
        <busStop id="131112" name="Hector Otto"/>
    </ptLine> 
    <ptLine id="131237" name="21 Monaco Cremaillere - Roquebrune Vieux Village - Menton Gare Routiere" line="21:Menton" type="bus">
        <route edges="-153012#0_1"/>
        <busStop id="131148" name="2e Hameau"/>
    </ptLine> 
</additional>
