<?xml version="1.0" encoding="UTF-8"?>

<!--
    Monaco SUMO Traffic (MoST) Scenario
    Copyright (C) 2018
    Lara CODECA

    This program is free software: you can redistribute it and/or modify
    it under the terms of the GNU General Public License as published by
    the Free Software Foundation, either version 3 of the License, or
    (at your option) any later version.

    This program is distributed in the hope that it will be useful,
    but WITHOUT ANY WARRANTY; without even the implied warranty of
    MERCHANTABILITY or FITNESS FOR A PARTICULAR PURPOSE.  See the
    GNU General Public License for more details.

    You should have received a copy of the GNU General Public License
    along with this program.  If not, see <http://www.gnu.org/licenses/>.
-->

<additional xmlns:xsi="http://www.w3.org/2001/XMLSchema-instance" xsi:noNamespaceSchemaLocation="http://sumo.dlr.de/xsd/additional_file.xsd"> 
    <ptLine id="131212" name="MoSTtoItaly" line="M0:Italy" type="train">
        <route edges="-152211_0 -152211_0 -152211_0 -152211_0 -152211_0 -152211_0"/>
        <busStop id="131066" name="Carnoles"/>
        <busStop id="131065" name="Roquebrune-Cap-Martin"/>
        <busStop id="131034" name="Monte-Carlo Country Club"/>
        <busStop id="131064" name="Monaco - Monte Carlo"/>
        <busStop id="131052" name="Cap d'Ail"/>
        <busStop id="131023" name="Eze"/>
    </ptLine> 
    <ptLine id="131219" name="MoSTtoFrance" line="M0:France" type="train">
        <route edges="152213_0 152213_0 152213_0 152213_0 152213_0 152213_0"/>
        <busStop id="131053" name="Eze"/>
        <busStop id="131032" name="Cap d'Ail"/>
        <busStop id="131028" name="Monaco - Monte Carlo"/>
        <busStop id="131113" name="Monte-Carlo Country Club"/>
        <busStop id="131025" name="Roquebrune-Cap-Martin"/>
        <busStop id="131018" name="Carnoles"/>
    </ptLine> 
</additional>
