<?xml version="1.0" encoding="UTF-8"?>

<!--
    Monaco SUMO Traffic (MoST) Scenario
    Copyright (C) 2018
    Lara CODECA

    This program is free software: you can redistribute it and/or modify
    it under the terms of the GNU General Public License as published by
    the Free Software Foundation, either version 3 of the License, or
    (at your option) any later version.

    This program is distributed in the hope that it will be useful,
    but WITHOUT ANY WARRANTY; without even the implied warranty of
    MERCHANTABILITY or FITNESS FOR A PARTICULAR PURPOSE.  See the
    GNU General Public License for more details.

    You should have received a copy of the GNU General Public License
    along with this program.  If not, see <http://www.gnu.org/licenses/>.
-->

<additional xmlns:xsi="http://www.w3.org/2001/XMLSchema-instance" xsi:noNamespaceSchemaLocation="http://sumo.dlr.de/xsd/additional_file.xsd"> 
    <ptLine id="131210" name="MoSTtoFrance1" line="M1:France" type="bus">
        <route edges="152929_1 -152905_1 153462_1"/>
        <busStop id="131172" name="Parking Saint-Laurent d'Eze"/>
        <busStop id="131031" name="Chapelle de Saint-Laurent"/>
        <busStop id="131168" name="131168"/>
    </ptLine> 
    <ptLine id="131211" name="MoSTtoEze" line="M1:Eze" type="bus">
        <route edges="-153462_1 152905_1 -152929_1"/>
        <busStop id="131167" name="131167"/>
        <busStop id="131162" name="Chapelle de Saint-Laurent"/>
        <busStop id="131171" name="Parking Saint-Laurent d'Eze"/>
    </ptLine> 
    <ptLine id="131213" name="MoSTtoFrance2" line="M2:France" type="bus">
        <route edges="153435#1_1 153462_1"/>
        <busStop id="131164" name="La Turbie Marie"/>
        <busStop id="131168" name="131168"/>
    </ptLine> 
    <ptLine id="131214" name="MoSTtoPontUnion" line="M5:PontUnion" type="bus">
        <route edges="152995#0_1 153359#1_1 153359#1_1 -152959_1 -152959_1 -152959_1 152556_1 152556_1"/>
        <busStop id="131158" name="Ramingao"/>
        <busStop id="131155" name="2e Escalier"/>
        <busStop id="131153" name="1er Escalier"/>
        <busStop id="131151" name="Massolin"/>
        <busStop id="131078" name="Cypris"/>
        <busStop id="131077" name="Orchidees"/>
        <busStop id="131075" name="Victoria"/>
        <busStop id="131194" name="Pont de l'Union"/>
    </ptLine> 
    <ptLine id="131215" name="MoSTtoRamingao" line="M5:Ramingao" type="bus">
        <route edges="153658_1 153658_1 -152557_1 -152557_1 -153359#1_1 -153359#1_1 -152995#0_1"/>
        <busStop id="131140" name="Pont de l'Union"/>
        <busStop id="131198" name="131198"/>
        <busStop id="131076" name="Le Cirta"/>
        <busStop id="131074" name="Mairie"/>
        <busStop id="131152" name="1er Escalier"/>
        <busStop id="131154" name="2e Escalier"/>
        <busStop id="131159" name="Ramingao"/>
    </ptLine> 
    <ptLine id="131216" name="HospitalToTurbie" line="M3:Turbie" type="bus">
        <route edges="153435#1_1 -152910#6_1 -152411#0_1 -152331#2_1 -152331#4_1 -152167_1 152872#5_1"/>
        <busStop id="131164" name="La Turbie Marie"/>
        <busStop id="131040" name="131040"/>
        <busStop id="131024" name="131024"/>
        <busStop id="131039" name="131039"/>
        <busStop id="131033" name="131033"/>
        <busStop id="131022" name="131022"/>
        <busStop id="131086" name="Hopital"/>
    </ptLine> 
    <ptLine id="131217" name="TurbieToHospital" line="M3:Hospital" type="bus">
        <route edges="152910#0_1 152910#6_1 152910#8_1 152331#0_1 152331#4_1 152167_1 152901#1_1"/>
        <busStop id="131030" name="La Turbie Marie"/>
        <busStop id="131038" name="131038"/>
        <busStop id="131020" name="131020"/>
        <busStop id="131019" name="131019"/>
        <busStop id="131037" name="131037"/>
        <busStop id="131029" name="131029"/>
        <busStop id="131055" name="Hopital"/>
    </ptLine> 
    <ptLine id="131218" name="MoSTtoLaTurbie" line="M2:Turbie" type="bus">
        <route edges="-153462_1 152910#0_1"/>
        <busStop id="131167" name="131167"/>
        <busStop id="131030" name="La Turbie Marie"/>
    </ptLine> 
    <ptLine id="131220" name="MoSTtoTrain" line="M4:Train" type="bus">
        <route edges="-152911_1 153478#18_1 -153012#0_1 -152922#2_1"/>
        <busStop id="131180" name="L'Eglise"/>
        <busStop id="131178" name="La Source"/>
        <busStop id="131035" name="Les Cigognes"/>
        <busStop id="131195" name="Bois Joli"/>
    </ptLine> 
    <ptLine id="131221" name="MoSTtoHotelVille" line="M4:HotelVille" type="bus">
        <route edges="152922#2_1 153012#0_1 -153478#20_1 -153478#16_1 -153478#13_1"/>
        <busStop id="131027" name="Bois Joli"/>
        <busStop id="131196" name="Les Cigognes"/>
        <busStop id="131177" name="Guillaume Apollinaire"/>
        <busStop id="131179" name="L'Eglise"/>
        <busStop id="131181" name="Hotel de Ville"/>
    </ptLine> 
    <ptLine id="131222" name="Bus 1: Monaco Ville (le Rocher) - Saint-Roman" line="1:SaintRoman" type="bus">
        <route edges="-152775_1 152804_1 152388_1 152818#3_1 152818#5_1 152789#1_1 152764_1 152656#2_1 152679#0_1 152679#3_1 152679#5_1 152669#3_1 152669#7_1 152669#11_1 152607#2_1 -152584#3_1 152350_1"/>
        <busStop id="131116" name="Monaco Ville (le Rocher)"/>
        <busStop id="131118" name="Place d'Armes (Port)"/>
        <busStop id="131044" name="Princesse Stephanie"/>
        <busStop id="131092" name="Stade Nautique"/>
        <busStop id="131093" name="Princesse Antoinette"/>
        <busStop id="131094" name="Kennedy"/>
        <busStop id="131095" name="Auditorium Rainier III"/>
        <busStop id="131043" name="Portier"/>
        <busStop id="131051" name="Spelugues"/>
        <busStop id="131050" name="Citronniers"/>
        <busStop id="131059" name="Place du Casino"/>
        <busStop id="131057" name="Monte-Carlo (Tourisme)"/>
        <busStop id="131061" name="Saint-Charles"/>
        <busStop id="131129" name="Place des Moulins"/>
        <busStop id="131127" name="La Rousse"/>
        <busStop id="131125" name="Carmes"/>
        <busStop id="131166" name="Saint-Roman (Bus 1)"/>
    </ptLine> 
    <ptLine id="131223" name="Bus 1: Saint-Roman - Monaco Ville (le Rocher)" line="1:Monaco" type="bus">
        <route edges="152350_1 152584#4_1 -152607#1_1 -152607#0_1 -152655_1 152704#1_1 152674#2_1 152812#0_1 152822_1 152822_1 152804_1 -152775_1"/>
        <busStop id="131166" name="Saint-Roman (Bus 1)"/>
        <busStop id="131133" name="Carmes"/>
        <busStop id="131124" name="La Rousse"/>
        <busStop id="131128" name="Place des Moulins"/>
        <busStop id="131134" name="Saint-Charles"/>
        <busStop id="131062" name="Monte-Carlo"/>
        <busStop id="131063" name="Square Beaumarchais"/>
        <busStop id="131132" name="Ostende"/>
        <busStop id="131060" name="Place Sainte-Devote (Gare)"/>
        <busStop id="131122" name="Princesse Florestine"/>
        <busStop id="131118" name="Place d'Armes (Port)"/>
        <busStop id="131116" name="Monaco Ville (le Rocher)"/>
    </ptLine> 
    <ptLine id="131224" name="Bus 2: Monaco Ville (le Rocher) - Jardin Exotique" line="2:Jardin" type="bus">
        <route edges="-152775_1 152804_1 152388_1 152818#3_1 152818#5_1 -152812#1_1 152777#0_1 152669#3_1 152175#0_1 -152703#3_1 152230_1 -152816#10_1 -152816#7_1 -152816#4_1 -152816#3_1 152898_1"/>
        <busStop id="131116" name="Monaco Ville (le Rocher)"/>
        <busStop id="131118" name="Place d'Armes (Port)"/>
        <busStop id="131044" name="Princesse Stephanie"/>
        <busStop id="131092" name="Stade Nautique"/>
        <busStop id="131093" name="Princesse Antoinette"/>
        <busStop id="131096" name="Ostende"/>
        <busStop id="131091" name="Terrasses du Casino"/>
        <busStop id="131057" name="Monte-Carlo (Tourisme)"/>
        <busStop id="131090" name="Cremaillere"/>
        <busStop id="131097" name="Roqueville"/>
        <busStop id="131047" name="Pont Sainte-Devote"/>
        <busStop id="131119" name="Belgique"/>
        <busStop id="131098" name="Moneghetti"/>
        <busStop id="131135" name="Rotondes"/>
        <busStop id="131049" name="Villa Paloma"/>
        <busStop id="131137" name="Jardin Exotique"/>
    </ptLine> 
    <ptLine id="131225" name="Bus 2: Jardin Exotique - Monaco Ville (le Rocher)" line="2:Monaco" type="bus">
        <route edges="152898_1 152816#3_1 152816#3_1 152816#6_1 152816#10_1 152703#0_1 152703#4_1 152704#1_1 152674#2_1 152812#0_1 152822_1 152822_1 -152819#2_1 -152775_1"/>
        <busStop id="131137" name="Jardin Exotique"/>
        <busStop id="131048" name="Villa Paloma"/>
        <busStop id="131138" name="Rotondes"/>
        <busStop id="131069" name="Moneghetti"/>
        <busStop id="131112" name="Belgique"/>
        <busStop id="131079" name="Pont Sainte-Devote"/>
        <busStop id="131201" name="Roqueville"/>
        <busStop id="131062" name="Monte-Carlo"/>
        <busStop id="131063" name="Square Beaumarchais"/>
        <busStop id="131132" name="Ostende"/>
        <busStop id="131060" name="Place Sainte-Devote (Gare)"/>
        <busStop id="131122" name="Princesse Florestine"/>
        <busStop id="131084" name="Place d'Armes (vers Monaco Ville)"/>
        <busStop id="131116" name="Monaco Ville (le Rocher)"/>
    </ptLine> 
    <ptLine id="131226" name="Bus 4: Fontvieille - Centre Commercial - Saint-Roman" line="4:SaintRoman" type="bus">
        <route edges="153641_1 152453_1 152648_1 -152875#3_1 152985_1 152420_1 152823#2_1 -152971#0_1 -152971#0_1 152703#0_1 152703#4_1 152669#3_1 152669#7_1 152669#11_1 152607#2_1 -152584#3_1 -152350_1"/>
        <busStop id="131088" name="Fontvieille - Centre Commercial"/>
        <busStop id="131102" name="Papalins"/>
        <busStop id="131058" name="Roseraie"/>
        <busStop id="131101" name="Heliport"/>
        <busStop id="131202" name="Stade Louis II"/>
        <busStop id="131188" name="Cimetiere"/>
        <busStop id="131115" name="Place d'Armes (Charles III)"/>
        <busStop id="131100" name="Castelleretto"/>
        <busStop id="131036" name="Louis Aureglia"/>
        <busStop id="131079" name="Pont Sainte-Devote"/>
        <busStop id="131201" name="Roqueville"/>
        <busStop id="131057" name="Monte-Carlo (Tourisme)"/>
        <busStop id="131061" name="Saint-Charles"/>
        <busStop id="131129" name="Place des Moulins"/>
        <busStop id="131127" name="La Rousse"/>
        <busStop id="131125" name="Carmes"/>
        <busStop id="131085" name="Saint-Roman (Bus 4)"/>
    </ptLine> 
    <ptLine id="131227" name="Bus 4: Saint-Roman - Fontvieille - Centre Commercial" line="4:Fontvieille" type="bus">
        <route edges="-152350_1 153378_1 152584#0_1 152584#4_1 -152607#1_1 -152607#0_1 -152655_1 152175#0_1 -152703#3_1 152230_1 152971#0_1 152971#2_1 -152797#1_1 152804_1 152791#0_1 153641_1"/>
        <busStop id="131085" name="Saint-Roman (Bus 4)"/>
        <busStop id="131081" name="Varavilla"/>
        <busStop id="131163" name="Saint-Roman"/>
        <busStop id="131133" name="Carmes"/>
        <busStop id="131124" name="La Rousse"/>
        <busStop id="131128" name="Place des Moulins"/>
        <busStop id="131134" name="Saint-Charles"/>
        <busStop id="131090" name="Cremaillere"/>
        <busStop id="131097" name="Roqueville"/>
        <busStop id="131047" name="Pont Sainte-Devote"/>
        <busStop id="131099" name="Louis Aureglia"/>
        <busStop id="131045" name="Castelleretto"/>
        <busStop id="131046" name="Honore II"/>
        <busStop id="131118" name="Place d'Armes (Port)"/>
        <busStop id="131121" name="Princesse Stephanie"/>
        <busStop id="131088" name="Fontvieille - Centre Commercial"/>
    </ptLine> 
    <ptLine id="131228" name="Bus 5: Larvotto - Hopital" line="5:Hopital" type="bus">
        <route edges="152536#7_1 152537#0_1 152537#2_1 152537#4_1 152537#6_1 152679#0_1 152679#3_1 152679#5_1 152669#3_1 152175#0_1 -152703#3_1 152230_1 -152947#2_1 -152947#0_1 152872#3_1 152872#5_1 -152940#0_1 152901#1_1"/>
        <busStop id="131083" name="Larvotto"/>
        <busStop id="131209" name="Sea Club"/>
        <busStop id="131080" name="Plages"/>
        <busStop id="131110" name="Grimaldi Forum/Villa Sauber"/>
        <busStop id="131082" name="Portier"/>
        <busStop id="131051" name="Spelugues"/>
        <busStop id="131050" name="Citronniers"/>
        <busStop id="131059" name="Place du Casino"/>
        <busStop id="131057" name="Monte-Carlo (Tourisme)"/>
        <busStop id="131090" name="Cremaillere"/>
        <busStop id="131097" name="Roqueville"/>
        <busStop id="131047" name="Pont Sainte-Devote"/>
        <busStop id="131203" name="Belgique"/>
        <busStop id="131107" name="Bosio"/>
        <busStop id="131199" name="Parc Princesse Antoinette"/>
        <busStop id="131086" name="Hopital"/>
        <busStop id="131056" name="Athanee"/>
        <busStop id="131055" name="Hopital"/>
    </ptLine> 
    <ptLine id="131229" name="Bus 5: Hopital - Larvotto" line="5:Larvotto" type="bus">
        <route edges="152901#1_1 -152872#4_1 -152872#3_1 -152872#0_1 152947#2_1 152703#0_1 152703#4_1 152669#3_1 -152679#4_1 -152679#0_1 152656#2_1 152536#2_1 152536#4_1 152536#6_1 152536#7_1"/>
        <busStop id="131055" name="Hopital"/>
        <busStop id="131105" name="Observatoire"/>
        <busStop id="131200" name="Parc Princesse Antoinette"/>
        <busStop id="131106" name="Bosio"/>
        <busStop id="131123" name="Belgique"/>
        <busStop id="131079" name="Pont Sainte-Devote"/>
        <busStop id="131201" name="Roqueville"/>
        <busStop id="131057" name="Monte-Carlo (Tourisme)"/>
        <busStop id="131126" name="Place du Casino"/>
        <busStop id="131087" name="Spelugues"/>
        <busStop id="131043" name="Portier"/>
        <busStop id="131108" name="Grimaldi Forum/Villa Sauber"/>
        <busStop id="131131" name="Plages"/>
        <busStop id="131109" name="Sea Club"/>
        <busStop id="131083" name="Larvotto"/>
    </ptLine> 
    <ptLine id="131230" name="Bus 6: Fontvieille - Centre Commercial - Larvotto" line="6:Larvotto" type="bus">
        <route edges="153641_1 152453_1 152648_1 -152875#3_1 152985_1 152885#0_1 153640_1 152818#3_1 152818#5_1 -152812#1_1 152777#0_1 152669#3_1 -152679#4_1 -152679#0_1 152656#2_1 152536#2_1 152536#4_1 152536#6_1 152536#7_1"/>
        <busStop id="131088" name="Fontvieille - Centre Commercial"/>
        <busStop id="131102" name="Papalins"/>
        <busStop id="131058" name="Roseraie"/>
        <busStop id="131101" name="Heliport"/>
        <busStop id="131202" name="Stade Louis II"/>
        <busStop id="131208" name="Albert II"/>
        <busStop id="131103" name="Port de Fontvieille"/>
        <busStop id="131092" name="Stade Nautique"/>
        <busStop id="131093" name="Princesse Antoinette"/>
        <busStop id="131096" name="Ostende"/>
        <busStop id="131091" name="Terrasses du Casino"/>
        <busStop id="131057" name="Monte-Carlo (Tourisme)"/>
        <busStop id="131126" name="Place du Casino"/>
        <busStop id="131087" name="Spelugues"/>
        <busStop id="131043" name="Portier"/>
        <busStop id="131108" name="Grimaldi Forum/Villa Sauber"/>
        <busStop id="131131" name="Plages"/>
        <busStop id="131109" name="Sea Club"/>
        <busStop id="131083" name="Larvotto"/>
    </ptLine> 
    <ptLine id="131231" name="Bus 6: Larvotto - Fontvieille - Centre Commercial" line="6:Fontvieille" type="bus">
        <route edges="152536#7_1 152537#0_1 152537#2_1 152537#4_1 152537#6_1 152679#0_1 152679#3_1 152679#5_1 152704#1_1 152674#2_1 152812#0_1 152822_1 152822_1 152804_1 152791#0_1 153641_1"/>
        <busStop id="131083" name="Larvotto"/>
        <busStop id="131209" name="Sea Club"/>
        <busStop id="131080" name="Plages"/>
        <busStop id="131110" name="Grimaldi Forum/Villa Sauber"/>
        <busStop id="131082" name="Portier"/>
        <busStop id="131051" name="Spelugues"/>
        <busStop id="131050" name="Citronniers"/>
        <busStop id="131059" name="Place du Casino"/>
        <busStop id="131062" name="Monte-Carlo"/>
        <busStop id="131063" name="Square Beaumarchais"/>
        <busStop id="131132" name="Ostende"/>
        <busStop id="131060" name="Place Sainte-Devote (Gare)"/>
        <busStop id="131122" name="Princesse Florestine"/>
        <busStop id="131118" name="Place d'Armes (Port)"/>
        <busStop id="131121" name="Princesse Stephanie"/>
        <busStop id="131088" name="Fontvieille - Centre Commercial"/>
    </ptLine> 
    <ptLine id="131232" name="100 Nice a Menton" line="100:Menton" type="bus">
        <route edges="152929_1 152929_1 153479#0_1 153479#1_1 -153478#24_1 -153478#20_1 -153478#16_1 -153478#13_1 -153478#8_1 -153478#6_1 152540#0_1 152823#2_1 152669#3_1 153367#0_1 153367#4_1 153325#4_1 153325#4_1 153359#0_1 153359#1_1 153359#1_1 153359#2_1 153494_1 -153014#0_1 -153014#0_1 -153014#0_1 -153014#0_1 -153014#0_1 153355_1"/>
        <busStop id="131170" name="Cap Estel"/>
        <busStop id="131172" name="Parking Saint-Laurent d'Eze"/>
        <busStop id="131173" name="Gianton"/>
        <busStop id="131161" name="Deux Tunnels"/>
        <busStop id="131176" name="Edmond's Cap d'Ail"/>
        <busStop id="131177" name="Guillaume Apollinaire"/>
        <busStop id="131179" name="L'Eglise"/>
        <busStop id="131181" name="Hotel de Ville"/>
        <busStop id="131184" name="Le Loup Blanc"/>
        <busStop id="131185" name="Liberte"/>
        <busStop id="131187" name="Cimetiere"/>
        <busStop id="131115" name="Place d'Armes (Charles III)"/>
        <busStop id="131042" name="Monte-Carlo (TAM)"/>
        <busStop id="131189" name="Saint-Roman"/>
        <busStop id="131190" name="La Tranchee"/>
        <busStop id="131193" name="La Boucherie"/>
        <busStop id="131160" name="Les 4 Chemins"/>
        <busStop id="131156" name="Datcha"/>
        <busStop id="131155" name="2e Escalier"/>
        <busStop id="131153" name="1er Escalier"/>
        <busStop id="131150" name="Massolin"/>
        <busStop id="131145" name="Torraca"/>
        <busStop id="131148" name="Riva Bella"/>
        <busStop id="131147" name="2e Hameau"/>
        <busStop id="131142" name="1er Hameau"/>
        <busStop id="131141" name="Bien Situee"/>
        <busStop id="131071" name="Casernes"/>
        <busStop id="131070" name="Marche"/>
    </ptLine> 
    <ptLine id="131233" name="100 Menton a Nice" line="100:Nice" type="bus">
        <route edges="152549_1 -152994_1 -152994_1 -152994_1 -152994_1 -153494_1 -153494_1 -153359#1_1 -153359#1_1 -152995#0_1 -152995#0_1 -153325#2_1 -153325#1_1 152584#0_1 -152607#0_1 152704#1_1 152822_1 -152823#2_1 153478#2_1 153478#10_1 153478#13_1 -152911_1 153478#18_1 153478#22_1 -153479#1_1 -153479#1_1 -152929_1 -152929_1"/>
        <busStop id="131139" name="Saint-Joseph"/>
        <busStop id="131068" name="Casernes"/>
        <busStop id="131072" name="Bien Situee"/>
        <busStop id="131143" name="1er Hameau"/>
        <busStop id="131144" name="2e Hameau"/>
        <busStop id="131146" name="Torraca"/>
        <busStop id="131149" name="Massolin"/>
        <busStop id="131152" name="1er Escalier"/>
        <busStop id="131154" name="2e Escalier"/>
        <busStop id="131159" name="Ramingao"/>
        <busStop id="131157" name="Les 4 Chemins"/>
        <busStop id="131192" name="La Boucherie"/>
        <busStop id="131191" name="La Tranchee"/>
        <busStop id="131163" name="Saint-Roman"/>
        <busStop id="131128" name="Place des Moulins"/>
        <busStop id="131089" name="Monte-Carlo (TAM)"/>
        <busStop id="131060" name="Place Sainte-Devote (Gare)"/>
        <busStop id="131073" name="Place d'Armes (TAM)"/>
        <busStop id="131186" name="Liberte"/>
        <busStop id="131183" name="Le Loup Blanc"/>
        <busStop id="131182" name="Hotel de Ville"/>
        <busStop id="131180" name="L'Eglise"/>
        <busStop id="131178" name="La Source"/>
        <busStop id="131067" name="Beaverbrook"/>
        <busStop id="131175" name="Deux Tunnels"/>
        <busStop id="131174" name="Gianton"/>
        <busStop id="131171" name="Parking Saint-Laurent d'Eze"/>
        <busStop id="131169" name="Cap Estel"/>
    </ptLine> 
    <ptLine id="131234" name="Bus 3: Hector Otto - Fontvieille - Centre Commercial" line="3:Fontvieille" type="bus">
        <route edges="152838#6_1 152816#3_1 152816#5_1 152816#6_1 152816#10_1 -152947#2_1 -152947#0_1 152872#3_1 152872#5_1 152940#0_1 152940#2_1 152823#2_1 152804_1 152791#0_1 153641_1"/>
        <busStop id="131111" name="Hector Otto"/>
        <busStop id="131048" name="Villa Paloma"/>
        <busStop id="131136" name="Rotondes"/>
        <busStop id="131069" name="Moneghetti"/>
        <busStop id="131112" name="Belgique"/>
        <busStop id="131203" name="Belgique"/>
        <busStop id="131107" name="Bosio"/>
        <busStop id="131199" name="Parc Princesse Antoinette"/>
        <busStop id="131086" name="Hopital"/>
        <busStop id="131117" name="Athanee"/>
        <busStop id="131054" name="Cimetiere"/>
        <busStop id="131115" name="Place d'Armes (Charles III)"/>
        <busStop id="131118" name="Place d'Armes (Port)"/>
        <busStop id="131121" name="Princesse Stephanie"/>
        <busStop id="131088" name="Fontvieille - Centre Commercial"/>
    </ptLine> 
    <ptLine id="131235" name="Bus 3: Fontvieille - Centre Commercial - Hector Otto" line="3:Otto" type="bus">
        <route edges="153640_1 152818#3_1 152818#5_1 152822_1 152822_1 -152823#2_1 -152940#2_1 -152940#2_1 -152940#0_1 152901#1_1 -152872#4_1 -152872#3_1 -152872#0_1 152947#2_1 -152816#10_1 -152816#7_1 -152816#5_1 -152816#3_1 152838#6_1"/>
        <busStop id="131103" name="Port de Fontvieille"/>
        <busStop id="131092" name="Stade Nautique"/>
        <busStop id="131093" name="Princesse Antoinette"/>
        <busStop id="131060" name="Place Sainte-Devote (Gare)"/>
        <busStop id="131122" name="Princesse Florestine"/>
        <busStop id="131114" name="Place d'Armes (Charles III)"/>
        <busStop id="131026" name="Cimetiere"/>
        <busStop id="131104" name="Pasteur"/>
        <busStop id="131056" name="Athanee"/>
        <busStop id="131055" name="Hopital"/>
        <busStop id="131105" name="Observatoire"/>
        <busStop id="131200" name="Parc Princesse Antoinette"/>
        <busStop id="131106" name="Bosio"/>
        <busStop id="131123" name="Belgique"/>
        <busStop id="131119" name="Belgique"/>
        <busStop id="131098" name="Moneghetti"/>
        <busStop id="131021" name="Rotondes"/>
        <busStop id="131049" name="Villa Paloma"/>
        <busStop id="131111" name="Hector Otto"/>
    </ptLine> 
    <ptLine id="131236" name="21 Monaco Cremaillere - Roquebrune Vieux Village - Menton Gare Routiere" line="21:Menton" type="bus">
        <route edges="-153014#0_1"/>
        <busStop id="131147" name="2e Hameau"/>
    </ptLine> 
</additional>
