<?xml version="1.0" encoding="UTF-8"?>
<additional xmlns:xsi="http://www.w3.org/2001/XMLSchema-instance" xsi:noNamespaceSchemaLocation="http://sumo.dlr.de/xsd/additional_file.xsd"> 
    <ptLine id="30" name="MoSTtoItaly" line="M0:Italy" type="train">
        <route edges="37 37 37 37 45#1 45#1"/>
        <busStop id="155507" name="Carnoles"/>
        <busStop id="155506" name="Roquebrune-Cap-Martin"/>
        <busStop id="155475" name="Monte-Carlo Country Club"/>
        <busStop id="155505" name="Monaco - Monte Carlo"/>
        <busStop id="155493" name="Cap d'Ail"/>
        <busStop id="155464" name="Eze"/>
    </ptLine> 
    <ptLine id="37" name="MoSTtoFrance" line="M0:France" type="train">
        <route edges="46 46 46 28#1 28#1 28#1"/>
        <busStop id="155494" name="Eze"/>
        <busStop id="155473" name="Cap d'Ail"/>
        <busStop id="155469" name="Monaco - Monte Carlo"/>
        <busStop id="155554" name="Monte-Carlo Country Club"/>
        <busStop id="155466" name="Roquebrune-Cap-Martin"/>
        <busStop id="155459" name="Carnoles"/>
    </ptLine> 
</additional>
