<?xml version="1.0" encoding="UTF-8"?>

<!--
    Monaco SUMO Traffic (MoST) Scenario
    Copyright (C) 2018
    Lara CODECA

    This program is free software: you can redistribute it and/or modify
    it under the terms of the GNU General Public License as published by
    the Free Software Foundation, either version 3 of the License, or
    (at your option) any later version.

    This program is distributed in the hope that it will be useful,
    but WITHOUT ANY WARRANTY; without even the implied warranty of
    MERCHANTABILITY or FITNESS FOR A PARTICULAR PURPOSE.  See the
    GNU General Public License for more details.

    You should have received a copy of the GNU General Public License
    along with this program.  If not, see <http://www.gnu.org/licenses/>.
-->

<additional xmlns:xsi="http://www.w3.org/2001/XMLSchema-instance" xsi:noNamespaceSchemaLocation="http://sumo.dlr.de/xsd/additional_file.xsd"> 
    <ptLine id="39" name="MoSTtoItaly" line="M0:Italy" type="train">
        <route edges="58 58 58 58 66#1 66#1"/>
        <busStop id="155384" name="Carnoles"/>
        <busStop id="155383" name="Roquebrune-Cap-Martin"/>
        <busStop id="155352" name="Monte-Carlo Country Club"/>
        <busStop id="155382" name="Monaco - Monte Carlo"/>
        <busStop id="155370" name="Cap d'Ail"/>
        <busStop id="155341" name="Eze"/>
    </ptLine> 
    <ptLine id="46" name="MoSTtoFrance" line="M0:France" type="train">
        <route edges="67 67 67 49#1 49#1 49#1"/>
        <busStop id="155371" name="Eze"/>
        <busStop id="155350" name="Cap d'Ail"/>
        <busStop id="155346" name="Monaco - Monte Carlo"/>
        <busStop id="155431" name="Monte-Carlo Country Club"/>
        <busStop id="155343" name="Roquebrune-Cap-Martin"/>
        <busStop id="155336" name="Carnoles"/>
    </ptLine> 
</additional>
