<?xml version="1.0" encoding="UTF-8"?>

<!--
    Monaco SUMO Traffic (MoST) Scenario
    Copyright (C) 2018
    Lara CODECA

    This program is free software: you can redistribute it and/or modify
    it under the terms of the GNU General Public License as published by
    the Free Software Foundation, either version 3 of the License, or
    (at your option) any later version.

    This program is distributed in the hope that it will be useful,
    but WITHOUT ANY WARRANTY; without even the implied warranty of
    MERCHANTABILITY or FITNESS FOR A PARTICULAR PURPOSE.  See the
    GNU General Public License for more details.

    You should have received a copy of the GNU General Public License
    along with this program.  If not, see <http://www.gnu.org/licenses/>.
-->

<additional xmlns:xsi="http://www.w3.org/2001/XMLSchema-instance" xsi:noNamespaceSchemaLocation="http://sumo.dlr.de/xsd/additional_file.xsd"> 
    <ptLine id="37" name="MoSTtoFrance1" line="M1:France" type="bus">
        <route edges="855 -831 1399"/>
        <busStop id="155490" name="Parking Saint-Laurent d'Eze"/>
        <busStop id="155349" name="Chapelle de Saint-Laurent"/>
        <busStop id="155486" name="155486"/>
    </ptLine> 
    <ptLine id="38" name="MoSTtoEze" line="M1:Eze" type="bus">
        <route edges="-1399 831 -855"/>
        <busStop id="155485" name="155485"/>
        <busStop id="155480" name="Chapelle de Saint-Laurent"/>
        <busStop id="155489" name="Parking Saint-Laurent d'Eze"/>
    </ptLine> 
    <ptLine id="40" name="MoSTtoFrance2" line="M2:France" type="bus">
        <route edges="1372#1 1399"/>
        <busStop id="155482" name="La Turbie Marie"/>
        <busStop id="155486" name="155486"/>
    </ptLine> 
    <ptLine id="41" name="MoSTtoPontUnion" line="M5:PontUnion" type="bus">
        <route edges="925#0 1296#1 -1293#2 -887 -887 -887 475 475"/>
        <busStop id="155476" name="Ramingao"/>
        <busStop id="155473" name="2e Escalier"/>
        <busStop id="155471" name="1er Escalier"/>
        <busStop id="155469" name="Massolin"/>
        <busStop id="155396" name="Cypris"/>
        <busStop id="155395" name="Orchidees"/>
        <busStop id="155393" name="Victoria"/>
        <busStop id="155512" name="Pont de l'Union"/>
    </ptLine> 
    <ptLine id="42" name="MoSTtoRamingao" line="M5:Ramingao" type="bus">
        <route edges="1604 1604 -476 -476 -1296#1 -1296#1 -925#0"/>
        <busStop id="155458" name="Pont de l'Union"/>
        <busStop id="155516" name="155516"/>
        <busStop id="155394" name="Le Cirta"/>
        <busStop id="155392" name="Mairie"/>
        <busStop id="155470" name="1er Escalier"/>
        <busStop id="155472" name="2e Escalier"/>
        <busStop id="155477" name="Ramingao"/>
    </ptLine> 
    <ptLine id="43" name="HospitalToTurbie" line="M3:Turbie" type="bus">
        <route edges="1372#1 -836#6 -317#0 -234#2 -234#4 -234#8 938#0"/>
        <busStop id="155482" name="La Turbie Marie"/>
        <busStop id="155358" name="155358"/>
        <busStop id="155342" name="155342"/>
        <busStop id="155357" name="155357"/>
        <busStop id="155351" name="155351"/>
        <busStop id="155340" name="155340"/>
        <busStop id="155404" name="Hopital"/>
    </ptLine> 
    <ptLine id="44" name="TurbieToHospital" line="M3:Hospital" type="bus">
        <route edges="836#0 836#6 836#8 234#0 234#4 234#8 827#1"/>
        <busStop id="155348" name="La Turbie Marie"/>
        <busStop id="155356" name="155356"/>
        <busStop id="155338" name="155338"/>
        <busStop id="155337" name="155337"/>
        <busStop id="155355" name="155355"/>
        <busStop id="155347" name="155347"/>
        <busStop id="155373" name="Hopital"/>
    </ptLine> 
    <ptLine id="45" name="MoSTtoLaTurbie" line="M2:Turbie" type="bus">
        <route edges="-1399 836#0"/>
        <busStop id="155485" name="155485"/>
        <busStop id="155348" name="La Turbie Marie"/>
    </ptLine> 
    <ptLine id="47" name="MoSTtoTrain" line="M4:Train" type="bus">
        <route edges="1415#13 1415#19 -942#0 -848#2"/>
        <busStop id="155498" name="L'Eglise"/>
        <busStop id="155496" name="La Source"/>
        <busStop id="155353" name="Les Cigognes"/>
        <busStop id="155513" name="Bois Joli"/>
    </ptLine> 
    <ptLine id="48" name="MoSTtoHotelVille" line="M4:HotelVille" type="bus">
        <route edges="848#2 942#0 -1415#21 -1415#17 -1415#13"/>
        <busStop id="155345" name="Bois Joli"/>
        <busStop id="155514" name="Les Cigognes"/>
        <busStop id="155495" name="Guillaume Apollinaire"/>
        <busStop id="155497" name="L'Eglise"/>
        <busStop id="155499" name="Hotel de Ville"/>
    </ptLine> 
    <ptLine id="49" name="Bus 1: Monaco Ville (le Rocher) - Saint-Roman" line="1:SaintRoman" type="bus">
        <route edges="-687 729 294 743#3 743#5 -737#1 689 580#2 604#0 604#3 604#5 593#3 -593#7 593#11 530#2 -505#3 253"/>
        <busStop id="155434" name="Monaco Ville (le Rocher)"/>
        <busStop id="155436" name="Place d'Armes (Port)"/>
        <busStop id="155362" name="Princesse Stephanie"/>
        <busStop id="155410" name="Stade Nautique"/>
        <busStop id="155411" name="Princesse Antoinette"/>
        <busStop id="155412" name="Kennedy"/>
        <busStop id="155413" name="Auditorium Rainier III"/>
        <busStop id="155361" name="Portier"/>
        <busStop id="155369" name="Spelugues"/>
        <busStop id="155368" name="Citronniers"/>
        <busStop id="155377" name="Place du Casino"/>
        <busStop id="155360" name="Monte-Carlo (TAM)"/>
        <busStop id="155379" name="Saint-Charles"/>
        <busStop id="155447" name="Place des Moulins"/>
        <busStop id="155445" name="La Rousse"/>
        <busStop id="155443" name="Carmes"/>
        <busStop id="155484" name="Saint-Roman (Bus 1)"/>
    </ptLine> <!-- 155375:155360 -->
    <ptLine id="50" name="Bus 1: Saint-Roman - Monaco Ville (le Rocher)" line="1:Monaco" type="bus">
        <route edges="253 505#4 -531#4 -530#0 -579 629#1 591 721 747 747 729 -687"/>
        <busStop id="155484" name="Saint-Roman (Bus 1)"/>
        <busStop id="155451" name="Carmes"/>
        <busStop id="155442" name="La Rousse"/>
        <busStop id="155446" name="Place des Moulins"/>
        <busStop id="155452" name="Saint-Charles"/>
        <busStop id="155380" name="Monte-Carlo"/>
        <busStop id="155381" name="Square Beaumarchais"/>
        <busStop id="155450" name="Ostende"/>
        <busStop id="155378" name="Place Sainte-Devote (Gare)"/>
        <busStop id="155440" name="Princesse Florestine"/>
        <busStop id="155436" name="Place d'Armes (Port)"/>
        <busStop id="155434" name="Monaco Ville (le Rocher)"/>
    </ptLine> 
    <ptLine id="51" name="Bus 2: Monaco Ville (le Rocher) - Jardin Exotique" line="2:Jardin" type="bus">
        <route edges="-687 729 294 743#3 743#5 -737#1 702#0 593#3 641#2 -628#3 122 -741#10 -741#7 -741#4 -741#3 741#1"/>
        <busStop id="155434" name="Monaco Ville (le Rocher)"/>
        <busStop id="155436" name="Place d'Armes (Port)"/>
        <busStop id="155362" name="Princesse Stephanie"/>
        <busStop id="155410" name="Stade Nautique"/>
        <busStop id="155411" name="Princesse Antoinette"/>
        <busStop id="155412" name="Kennedy"/>
        <busStop id="155409" name="Terrasses du Casino"/>
        <busStop id="155360" name="Monte-Carlo (TAM)"/>
        <busStop id="155408" name="Cremaillere"/>
        <busStop id="155415" name="Roqueville"/>
        <busStop id="155365" name="Pont Sainte-Devote"/>
        <busStop id="155437" name="Belgique"/>
        <busStop id="155416" name="Moneghetti"/>
        <busStop id="155453" name="Rotondes"/>
        <busStop id="155367" name="Villa Paloma"/>
        <busStop id="155455" name="Jardin Exotique"/>
    </ptLine> <!-- 155414:155412 - 155375:155360 -->
    <ptLine id="52" name="Bus 2: Jardin Exotique - Monaco Ville (le Rocher)" line="2:Monaco" type="bus">
        <route edges="741#1 -741#3 741#3 741#6 741#10 628#0 628#4 629#1 591 721 747 747 -744#2 -687"/>
        <busStop id="155455" name="Jardin Exotique"/>
        <busStop id="155366" name="Villa Paloma"/>
        <busStop id="155456" name="Rotondes"/>
        <busStop id="155387" name="Moneghetti"/>
        <busStop id="155430" name="Belgique"/>
        <busStop id="155397" name="Pont Sainte-Devote"/>
        <busStop id="155448" name="155448"/>
        <busStop id="155380" name="Monte-Carlo"/>
        <busStop id="155381" name="Square Beaumarchais"/>
        <busStop id="155450" name="Ostende"/>
        <busStop id="155378" name="Place Sainte-Devote (Gare)"/>
        <busStop id="155440" name="Princesse Florestine"/>
        <busStop id="155402" name="Place d'Armes (vers Monaco Ville)"/>
        <busStop id="155434" name="Monaco Ville (le Rocher)"/>
    </ptLine> <!-- 155519:155448 -->
    <ptLine id="53" name="Bus 4: Fontvieille - Centre Commercial - Saint-Roman" line="4:SaintRoman" type="bus">
        <route edges="1587 359 305#2 -801#3 914 326 748#2 -899#2 -899#1 628#0 628#4 593#3 -593#7 593#11 530#2 -505#3 -253"/>
        <busStop id="155406" name="Fontvieille - Centre Commercial"/>
        <busStop id="155420" name="Papalins"/>
        <busStop id="155376" name="Roseraie"/>
        <busStop id="155419" name="Heliport"/>
        <busStop id="155520" name="Stade Louis II"/>
        <busStop id="155506" name="Cimetiere"/>
        <busStop id="155433" name="Place d'Armes (Charles III)"/>
        <busStop id="155418" name="Castelleretto"/>
        <busStop id="155354" name="Louis Aureglia"/>
        <busStop id="155397" name="Pont Sainte-Devote"/>
        <busStop id="155448" name="155448"/>
        <busStop id="155360" name="Monte-Carlo (TAM)"/>
        <busStop id="155379" name="Saint-Charles"/>
        <busStop id="155447" name="Place des Moulins"/>
        <busStop id="155445" name="La Rousse"/>
        <busStop id="155443" name="Carmes"/>
        <busStop id="155403" name="Saint-Roman (Bus 4)"/>
    </ptLine> <!-- 155519:155448 - 155375:155360 -->
    <ptLine id="54" name="Bus 4: Saint-Roman - Fontvieille - Centre Commercial" line="4:Fontvieille" type="bus">
        <route edges="-253 111 505#0 505#4 -531#4 -530#0 -579 641#2 -628#3 122 899#1 899#4 -722#1 729 716#0 1587"/>
        <busStop id="155403" name="Saint-Roman (Bus 4)"/>
        <busStop id="155399" name="Varavilla"/>
        <busStop id="155481" name="Saint-Roman"/>
        <busStop id="155451" name="Carmes"/>
        <busStop id="155442" name="La Rousse"/>
        <busStop id="155446" name="Place des Moulins"/>
        <busStop id="155452" name="Saint-Charles"/>
        <busStop id="155408" name="Cremaillere"/>
        <busStop id="155415" name="Roqueville"/>
        <busStop id="155365" name="Pont Sainte-Devote"/>
        <busStop id="155417" name="Louis Aureglia"/>
        <busStop id="155363" name="Castelleretto"/>
        <busStop id="155364" name="Honore II"/>
        <busStop id="155436" name="Place d'Armes (Port)"/>
        <busStop id="155439" name="Princesse Stephanie"/>
        <busStop id="155406" name="Fontvieille - Centre Commercial"/>
    </ptLine> 
    <ptLine id="55" name="Bus 5: Larvotto - Hopital" line="5:Hopital" type="bus">
        <route edges="450#9 451#0 451#4 451#6 451#8 604#0 604#3 604#5 593#3 641#2 -628#3 122 -875#2 -875#0 798#3 938#0 -867#0 827#1"/>
        <busStop id="155401" name="Larvotto"/>
        <busStop id="155527" name="Sea Club"/>
        <busStop id="155398" name="Plages"/>
        <busStop id="155426" name="Grimaldi Forum/Villa Sauber"/>
        <busStop id="155400" name="Portier"/>
        <busStop id="155369" name="Spelugues"/>
        <busStop id="155368" name="Citronniers"/>
        <busStop id="155377" name="Place du Casino"/>
        <busStop id="155360" name="Monte-Carlo (TAM)"/>
        <busStop id="155408" name="Cremaillere"/>
        <busStop id="155415" name="Roqueville"/>
        <busStop id="155365" name="Pont Sainte-Devote"/>
        <busStop id="155521" name="Belgique"/>
        <busStop id="155425" name="Bosio"/>
        <busStop id="155517" name="Parc Princesse Antoinette"/>
        <busStop id="155404" name="Hopital"/>
        <busStop id="155374" name="Athanee"/>
        <busStop id="155373" name="Hopital"/>
    </ptLine> <!-- 155428:155426 - 155375:155360 -->
    <ptLine id="56" name="Bus 5: Hopital - Larvotto" line="5:Larvotto" type="bus">
        <route edges="827#1 -798#4 -798#3 -798#0 875#2 628#0 628#4 593#3 -604#4 -604#0 580#2 451#6 450#5 450#8 450#9"/>
        <busStop id="155373" name="Hopital"/>
        <busStop id="155423" name="Observatoire"/>
        <busStop id="155518" name="Parc Princesse Antoinette"/>
        <busStop id="155424" name="Bosio"/>
        <busStop id="155441" name="Belgique"/>
        <busStop id="155397" name="Pont Sainte-Devote"/>
        <busStop id="155448" name="155448"/>
        <busStop id="155360" name="Monte-Carlo (TAM)"/>
        <busStop id="155444" name="Place du Casino"/>
        <busStop id="155405" name="Spelugues"/>
        <busStop id="155361" name="Portier"/>
        <busStop id="155426" name="Grimaldi Forum/Villa Sauber"/>
        <busStop id="155449" name="Plages"/>
        <busStop id="155427" name="Sea Club"/>
        <busStop id="155401" name="Larvotto"/>
    </ptLine> <!-- 155519:155448 - 155375:155360 -->
    <ptLine id="57" name="Bus 6: Fontvieille - Centre Commercial - Larvotto" line="6:Larvotto" type="bus">
        <route edges="1587 359 305#2 -801#3 914 811#0 1586 743#3 743#5 -737#1 702#0 593#3 -604#4 -604#0 580#2 451#6 450#5 450#8 450#9"/>
        <busStop id="155406" name="Fontvieille - Centre Commercial"/>
        <busStop id="155420" name="Papalins"/>
        <busStop id="155376" name="Roseraie"/>
        <busStop id="155419" name="Heliport"/>
        <busStop id="155520" name="Stade Louis II"/>
        <busStop id="155526" name="Albert II"/>
        <busStop id="155421" name="Port de Fontvieille"/>
        <busStop id="155410" name="Stade Nautique"/>
        <busStop id="155411" name="Princesse Antoinette"/>
        <busStop id="155412" name="Kennedy"/>
        <busStop id="155409" name="Terrasses du Casino"/>
        <busStop id="155360" name="Monte-Carlo (TAM)"/>
        <busStop id="155444" name="Place du Casino"/>
        <busStop id="155405" name="Spelugues"/>
        <busStop id="155361" name="Portier"/>
        <busStop id="155426" name="Grimaldi Forum/Villa Sauber"/>
        <busStop id="155449" name="Plages"/>
        <busStop id="155427" name="Sea Club"/>
        <busStop id="155401" name="Larvotto"/>
    </ptLine> <!-- 155414:155412 - 155375:155360 -->
    <ptLine id="58" name="Bus 6: Larvotto - Fontvieille - Centre Commercial" line="6:Fontvieille" type="bus">
        <route edges="450#9 451#0 451#4 451#6 451#8 604#0 604#3 604#5 629#1 591 721 747 747 729 716#0 1587"/>
        <busStop id="155401" name="Larvotto"/>
        <busStop id="155527" name="Sea Club"/>
        <busStop id="155398" name="Plages"/>
        <busStop id="155426" name="Grimaldi Forum/Villa Sauber"/>
        <busStop id="155400" name="Portier"/>
        <busStop id="155369" name="Spelugues"/>
        <busStop id="155368" name="Citronniers"/>
        <busStop id="155377" name="Place du Casino"/>
        <busStop id="155380" name="Monte-Carlo"/>
        <busStop id="155381" name="Square Beaumarchais"/>
        <busStop id="155450" name="Ostende"/>
        <busStop id="155378" name="Place Sainte-Devote (Gare)"/>
        <busStop id="155440" name="Princesse Florestine"/>
        <busStop id="155436" name="Place d'Armes (Port)"/>
        <busStop id="155439" name="Princesse Stephanie"/>
        <busStop id="155406" name="Fontvieille - Centre Commercial"/>
    </ptLine> <!-- 155428:155426 -->
    <ptLine id="59" name="100 Nice a Menton" line="100:Menton" type="bus">
        <route edges="855 855 1416#0 1416#1 -1415#25 -1415#21 -1415#17 -1415#13 940#0 -1415#6 454#0 748#2 593#3 1304#0 1304#4 1255#4 1255#4 1296#0 1296#1 -1293#2 1296#2 -1433 -944#0 -944#0 -944#0 -944#0 -944#0 1292"/>
        <busStop id="155488" name="Cap Estel"/>
        <busStop id="155490" name="Parking Saint-Laurent d'Eze"/>
        <busStop id="155491" name="Gianton"/>
        <busStop id="155479" name="Deux Tunnels"/>
        <busStop id="155494" name="Edmond's Cap d'Ail"/>
        <busStop id="155495" name="Guillaume Apollinaire"/>
        <busStop id="155497" name="L'Eglise"/>
        <busStop id="155499" name="Hotel de Ville"/>
        <busStop id="155502" name="Le Loup Blanc"/>
        <busStop id="155503" name="Liberte"/>
        <busStop id="155505" name="Cimetiere"/>
        <busStop id="155433" name="Place d'Armes (Charles III)"/>
        <busStop id="155360" name="Monte-Carlo (TAM)"/>
        <busStop id="155507" name="Saint-Roman"/>
        <busStop id="155508" name="La Tranchee"/>
        <busStop id="155511" name="La Boucherie"/>
        <busStop id="155478" name="Les 4 Chemins"/>
        <busStop id="155474" name="Datcha"/>
        <busStop id="155473" name="2e Escalier"/>
        <busStop id="155471" name="1er Escalier"/>
        <busStop id="155468" name="Massolin"/>
        <busStop id="155463" name="Torraca"/>
        <busStop id="155466" name="Riva Bella"/>
        <busStop id="155465" name="2e Hameau"/>
        <busStop id="155460" name="1er Hameau"/>
        <busStop id="155459" name="Bien Situee"/>
        <busStop id="155389" name="Casernes"/>
        <busStop id="155388" name="Marche"/>
    </ptLine> 
    <ptLine id="60" name="100 Menton a Nice" line="100:Nice" type="bus">
        <route edges="467 -924 -924 -924 -924 -1433 -1433 -1296#1 -1296#1 -925#0 -925#0 -1255#2 -1255#1 505#0 -530#0 629#1 747 -748#2 1415#2 940#0 1415#13 1415#13 1415#19 1415#23 -1416#1 -1416#1 -855 -855"/>
        <busStop id="155457" name="Saint-Joseph"/>
        <busStop id="155386" name="Casernes"/>
        <busStop id="155390" name="Bien Situee"/>
        <busStop id="155461" name="1er Hameau"/>
        <busStop id="155462" name="2e Hameau"/>
        <busStop id="155464" name="Torraca"/>
        <busStop id="155467" name="Massolin"/>
        <busStop id="155470" name="1er Escalier"/>
        <busStop id="155472" name="2e Escalier"/>
        <busStop id="155477" name="Ramingao"/>
        <busStop id="155475" name="Les 4 Chemins"/>
        <busStop id="155510" name="La Boucherie"/>
        <busStop id="155509" name="La Tranchee"/>
        <busStop id="155481" name="Saint-Roman"/>
        <busStop id="155446" name="Place des Moulins"/>
        <busStop id="155407" name="Monte-Carlo (TAM)"/>
        <busStop id="155378" name="Place Sainte-Devote (Gare)"/>
        <busStop id="155391" name="Place d'Armes (TAM)"/>
        <busStop id="155504" name="Liberte"/>
        <busStop id="155501" name="Le Loup Blanc"/>
        <busStop id="155500" name="Hotel de Ville"/>
        <busStop id="155498" name="L'Eglise"/>
        <busStop id="155496" name="La Source"/>
        <busStop id="155385" name="Beaverbrook"/>
        <busStop id="155493" name="Deux Tunnels"/>
        <busStop id="155492" name="Gianton"/>
        <busStop id="155489" name="Parking Saint-Laurent d'Eze"/>
        <busStop id="155487" name="Cap Estel"/>
    </ptLine> 
    <ptLine id="61" name="Bus 3: Hector Otto - Fontvieille - Centre Commercial" line="3:Fontvieille" type="bus">
        <route edges="763#6 -741#3 741#5 741#6 741#10 -875#2 -875#0 798#3 938#0 867#0 867#2 748#2 729 716#0 1587"/>
        <busStop id="155429" name="Hector Otto"/>
        <busStop id="155366" name="Villa Paloma"/>
        <busStop id="155454" name="Rotondes"/>
        <busStop id="155387" name="Moneghetti"/>
        <busStop id="155430" name="Belgique"/>
        <busStop id="155521" name="Belgique"/>
        <busStop id="155425" name="Bosio"/>
        <busStop id="155517" name="Parc Princesse Antoinette"/>
        <busStop id="155404" name="Hopital"/>
        <busStop id="155435" name="Athanee"/>
        <busStop id="155372" name="Cimetiere"/>
        <busStop id="155433" name="Place d'Armes (Charles III)"/>
        <busStop id="155436" name="Place d'Armes (Port)"/>
        <busStop id="155439" name="Princesse Stephanie"/>
        <busStop id="155406" name="Fontvieille - Centre Commercial"/>
    </ptLine> 
    <ptLine id="62" name="Bus 3: Fontvieille - Centre Commercial - Hector Otto" line="3:Otto" type="bus">
        <route edges="1586 743#3 743#5 747 747 -748#2 -867#2 867#2 -867#0 827#1 -798#4 -798#3 -798#0 875#2 -741#10 -741#7 -741#5 -741#3 763#6"/>
        <busStop id="155421" name="Port de Fontvieille"/>
        <busStop id="155410" name="Stade Nautique"/>
        <busStop id="155411" name="Princesse Antoinette"/>
        <busStop id="155378" name="Place Sainte-Devote (Gare)"/>
        <busStop id="155440" name="Princesse Florestine"/>
        <busStop id="155432" name="Place d'Armes (Charles III)"/>
        <busStop id="155344" name="Cimetiere"/>
        <busStop id="155422" name="Pasteur"/>
        <busStop id="155374" name="Athanee"/>
        <busStop id="155373" name="Hopital"/>
        <busStop id="155423" name="Observatoire"/>
        <busStop id="155518" name="Parc Princesse Antoinette"/>
        <busStop id="155424" name="Bosio"/>
        <busStop id="155441" name="Belgique"/>
        <busStop id="155437" name="Belgique"/>
        <busStop id="155416" name="Moneghetti"/>
        <busStop id="155339" name="Rotondes"/>
        <busStop id="155367" name="Villa Paloma"/>
        <busStop id="155429" name="Hector Otto"/>
    </ptLine> 
    <ptLine id="63" name="21 Monaco Cremaillere - Roquebrune Vieux Village - Menton Gare Routiere" line="21:Menton" type="bus">
        <route edges="-944#0"/>
        <busStop id="155465" name="2e Hameau"/>
    </ptLine> 
</additional>
