
<tazs> 
    <!-- id="33" name="gw33" -->
    <taz id="33" edges="152268 152267"/>
    <!-- id="45" name="gw45" -->
    <taz id="45" edges="153651 152549"/>
    <!-- id="34" name="gw34" -->
    <taz id="34" edges="152188 -153341 153341 152538 153340 -153340 -152542 152542 -152538 -152186"/>
    <!-- id="44" name="gw44" -->
    <taz id="44" edges="-152569#1 152569#1"/>
    <!-- id="43" name="gw43" -->
    <taz id="43" edges="153431 -153431"/>
    <!-- id="32" name="gw32" -->
    <taz id="32" edges="152520#0 152318#1"/>
    <!-- id="42" name="gw42" -->
    <taz id="42" edges="153447#0 -153447#0"/>
    <!-- id="41" name="gw41" -->
    <taz id="41" edges="-153455 153455"/>
    <!-- id="31" name="gw31" -->
    <taz id="31" edges="152188 -152186 -153473 153473"/>
    <!-- id="1" name="Monaco" -->
    <taz id="1" edges="152784#1 153288 152398 152894#1 -152391#1 -152790#1 153408#7 153269#1 152818#1 -152940#2 -152811#3 153293#2 -152287 152149#2 152529#2 152287 152530#1 -152932#2 -153391#1 152861 152779#0 153280 -152818#3 152665#3 152413 152662#5 153394#0 152307#3 -152955#6 -152652#1 -152486#5 153375#3 -152827#3 152774 152662#1 153102#1 -152931 153294#0 152762#1 153441 152214 -152805#2 152807#2 153400#0 -152654 153438 153540#1 153369#11 -152601#2 152678 153003#7 -152601#6 -152881#1 -152870#1 152669#1 -152809#8 -152868#3 152644#1 152697#0 -152160#0 153226#0 152348#4 -152855 -152653#0 153506#2 153105 153215#3 153303#2 152610#1 152991#6 152671#1 -152816#0 152156#1 152148#3 153148#1 152284 152381#0 -152603 152659#4 -152782#1 -152679 152885 153172 152890#0 -152775 -152870#0 -152530#1 153198 152940#1 152778#0 152795 153133 -153400#2 152858 153113#1 152880 -152962 152349#1 152358#1 153640 -153644#0 153581 152890#2 152693 152290 153646 152709 153147#2 -152991#7 -152415 153295 152667#2 153433 -153410#3 -152955#10 152679 153249#3 152134 -152134 -152831#4 152154#1 -152229 -152530#2 152681 153150 -153400#1 -152818#2 -152481 -152295 152610#2 152453#1 -152393#1 -152942 153399#1 152397#0 152676 153160 -152655#0 -153393#2 152665#2 -152860 152383#1 153173 152642#0 -152803 152932#4 152132#3 -152458#0 -152809#9 -152659#2 152292#0 153601 -152668 152149#0 152446 153109#0 153151 -152934#5 152894#0 -152130#0 152991#3 -153549#0 -152696#1 -152784#2 -152826#1 -152467#1 152701#1 152609 -152818#1 -152672#3 152762#2 152796 -152381#3 152809#5 153554#4 -152866 -152129 -152934#2 152584 152313#2 152991#5 152655#0 -152459 152938#1 -152704#1 152459 152963 152642#1 153121#1 153108 152955#2 152397#3 152315 153393#3 152201 153138#2 152865#3 152643#4 -153545 152869#3 -153555 152933#0 -152691 -152590#1 -152170 152643#6 153408#10 153226#2 153247#0 152794 -152893#2 -152304 -152814 152149#1 152671#2 153174#4 -152811#2 153003#6 -152665#1 -152804 153248#1 -152664#0 -152646 153145#0 -152932#3 152646 152936#4 -152644#3 -152816#2 153326#1 152866 -152382 -152894#1 152897#0 -152665#3 153278#0 152936#3 152879#1 152148#2 -152762#1 152789 -152378#0 152160#1 152808 153117#1 152571 -152955#0 152313#4 -152677#2 153512#3 -153393#3 152295 153514#1 152860 -152169#1 152961#0 153146 152811#0 152812#0 153299 -152813#0 -152342#0 -152797 -152767 -152537 -152807#0 152929 153400#3 -152854 152894#2 153560#0 153297#1 -152809#1 152498 152461#0 -152936#3 152831#5 153292#1 152771 -152887#1 152661 152809#10 -152784#3 -152314 -152770#0 153547#0 152827#1 152664#1 -152885 -152826#2 -153544#2 -152891 152955#6 153508#2 -152856 152809#3 -152706#2 -152606#0 -152508#1 152822#1 -152865#4 -152791#1 153393#1 153110 152665#1 152811#3 152827#4 -152688#0 153215#2 152999 -152953 -153393#0 152342#1 153277 152153#0 -152608 -153408#9 152130#1 -152964#3 152448 -152813#3 153408#15 -152822#1 -153643 -152530#0 152881#1 -152660 152780#1 152855 153391#4 153408#1 152938#0 153080 153293#0 152809#0 -153391#4 152577#0 152803 152942 153093#0 153294#2 153512#0 152663#1 -153544#0 152775 153315#1 -152773 153549#3 152960#0 -152452#0 -152825#1 -152895#1 -152929 152155#4 152600#2 152383#0 152582#1 -152211 152805#1 152664#0 153540#0 -152991#8 152537 -152865#2 152349#0 153401#1 152132#6 -152868#2 152129 -152158#0 152671#3 153096 152643#0 -152696#3 153225#0 153076 -152588 153285 -152650 -152384 -152831#6 152155#1 153253#0 152154#2 -152984 -153408#14 -152642#1 152954#1 152784#4 153268#2 -152284 153294#3 153220#6 152977#2 153409#2 152313#1 -152861 153152 152776 -152659#1 152348#3 152601#0 -153324#2 -153551 -152383#1 -153408#12 152798 152968 152932#1 152672#5 152784#3 152827#2 -153543#1 153283#0 -153395 -152288 152671#0 152603 152662#6 -152809#3 152642#2 152677#1 152934#2 152601#4 -152643#4 152778#1 152792#0 153263 152708 -152798 152342#0 152874#0 153199 152936#2 -152578#1 -152800#0 152169#1 -153549#1 152812#2 152449#1 -152416 153608 152294 153071 152668 -152991#2 -152599 153149#0 -152875#0 -152671#1 153268#1 -152285 153102#2 -152807#2 -152644#1 -152795 152601#9 -153326#1 152529#5 152659#1 -153369#11 -152201 153282#2 -152881#0 -152381#1 153644#1 153612 153591#0 152662#10 152454#1 153294#1 152756 -152809#4 152663#0 -152671#0 -152887#0 -152130#1 -152663#2 -152961#0 -152877 152807#1 -152819#1 -152596 -152936#0 153284 -152643#6 -152823 -152610#2 152871 152982#1 152382 152578#0 152800#0 153223#0 -152966#5 152150#1 153200 153171 153070 152955#1 153506#1 153100 152766 152447 -152709 152391#1 -152601#1 152982#2 153137 -152582#1 153135 152825#2 153220#1 152328 -152831#3 -152955#4 152449#3 -152778#0 153148#0 -153409#1 -152577#4 -152643#2 152418 -152375 152807#4 153330#4 -152356 -152585#1 152827#6 152452#1 152151#0 153196 -152672#5 153633 152826#2 152818#3 152873 -152784#0 -152607 152215 153223#2 152279 153269#3 -152812#1 153174#1 152804 -152789 152809#8 -152705 -153645 -152165#0 -152890#1 153222#1 -152381#2 152784#2 152582#2 152148#1 153324#0 152589 153548 152807#5 -152600#1 -152601#3 152291 152779#1 -152807#1 153219#3 153439#5 153215#1 -152662#3 153253#1 152857 -153554#4 -152664#1 153117#0 153488 -152770#4 -152785 -152765 -152878#2 152935 153391#0 -152890#0 152577#4 152865#0 152486#1 -152611 -152882#0 -153391#2 153609 -152677#1 153584 153408#12 -153408#0 152818#0 -152792#0 -153375#3 -152701#2 -152791#0 152819#0 152982#0 -152610#0 153290#0 153305 152486#5 153094#0 -152669#0 153543#2 152224 -152770#2 -153369#10 153248#0 -153001#0 152158#0 152881#0 -152265 152608 -152831#0 -152158#1 -152811#1 152760#0 -152380 152659#0 153621 -152700#0 153138#1 -152933#1 152662#7 153410#0 153408#6 -153408#6 152529#6 153400#1 152578#1 -153268#1 -152652#2 152966#4 -152867 153408#13 -152303 153286#1 153283#2 152801 -152585#0 152463 152508#1 152696#2 153591#1 -152940#0 153410#3 153543#1 152816#0 152229 152158#1 -152663#0 -152225 153545 -152279 152225 152865#1 152879#0 152611 152699 152688#1 153246#1 -152500 -152657 153410#2 152809#6 152875#1 152780#0 153104 152977#4 153125 153649 153264 -152186 -152753 152610#0 152260 153190#1 153220#5 152662#11 -152486#1 -153396 153408#11 152300 152601#2 -152698 152662#2 152151#1 152852 -152992 -152897#0 -152999 153220#2 -152864 -152644#2 152384 153401#2 152936#1 152769 153244#0 -152806 -152602 -152783 -152779#1 -152994 153439#3 -152392#0 152791#0 152788 -152643#3 152677#2 152644#0 153270 153243#1 153287#0 152529#0 153410#1 152390 -152708 152376 -152659#3 152831#3 152672#2 -152701#0 152154#5 152375 152643#2 152869#5 152770#5 152588 152706#1 -153432 -152601#4 152654 152811#4 153149#1 -152162 152870#1 -152810 152585#1 152652#2 153409#0 153408#16 -152169#0 -152827#2 152656 -153408#16 153134 153221 153583 -152707 153644#0 -152452#2 152696#4 153121#2 152450 153586 152132#1 153223#1 152577#3 -152656 152453#0 152604 152132#4 152893#1 -152662#1 152649#2 152763 152358#3 -152486#3 153408#8 -152164 152453#3 152869#1 152500 153211#0 -153408#7 -152878#0 153166#0 153268#0 -152876 153275 -153268#2 -152662#8 152683#1 152467#1 -153439#4 -152711 -152862 -152934#0 153155 153544#0 153124 153216#1 152286 -152893#1 152761#0 152702#0 -152771 -152770#5 -152294 153634 -152577#0 -152643#5 153554#3 153262 152641 152970#3 152827#3 153544#1 152139 153072 -152224 -152820#0 152533#1 152649#4 -152393#0 -152805#1 153547#3 152710 -152982#1 -152683#2 152452#0 152790#1 -152671#3 -152813#2 153098#1 -153635 -152663#1 -152454#1 152148#0 152962 152456 152285 -152793 152940#2 -152818#0 153215#0 152674 153269#4 153109#1 -152662#2 152449#2 152782#1 -152880 152955#3 152133 152649#1 152155#2 -152529#5 152649#0 152277 -153644#1 152132#5 152704#1 152465 -152868#0 152955#4 153300 152579 153475#7 -152694 152773 -152601#7 -152991#3 -152966#0 152931 -152219 152757 -152896#1 153549#0 153228 -152782#0 -152293 152649#3 153650 152457 -152809#6 -152878#1 152770#2 152706#2 152977#3 152486#0 152954#4 -152769 152645#0 -152681 152831#6 152883 153156#1 -152584 152868#2 153265#1 -153553 152701#3 -152933#2 153226#1 -153401#0 -152777 -152762#3 152878#1 153400#2 153391#1 -152794 152486#2 -152644#4 152818#2 153610 152711 -153410#1 -152649#3 152870#0 152391#2 -152582#2 152822#0 153647 153375#2 152869#4 -152761#1 152386 -152964#2 153247#1 152802 152882#1 153516 152876 -153554#2 152770#3 -152417#0 153131 152983 152282 152647#0 152869#2 153547#1 -153410#2 152169#0 -152529#0 152348#2 153413 -152165#1 152601#3 -153408#11 -152649#1 -152672#4 153225#2 152219 -152612 -153391#0 152154#4 -152680#3 152791#1 153111 -152812#0 152582#3 -152933#0 152970#2 152529#4 152954#5 -152831#2 152787#1 153215#4 152458#1 152944 152261 152865#4 152415 -152467#0 152891 -152800#1 -152530#6 -152486#0 152378#0 152806 152312 -152659#6 152647#1 152132#2 -152873 153506#0 153138#0 153220#0 152697#1 152765 152393#2 152691 152600#1 152934#1 152154#0 152663#2 -152601#5 -152530#4 -152342#1 -152609 152932#3 -152889#0 153604#0 -152577#2 -152809#5 153394#1 152673 -152762#2 152760#1 153245 152645#2 -153554#0 152943#1 153147#1 -152674 152992 152809#7 152812#1 152680#3 153315#0 -152585#2 153242 152596 152854 -153003#6 -152801 -152665#2 152792#1 152893#2 152303 152868#3 -153549#3 152455 -153268#0 -153544#1 153544#2 152216 152955#10 -152831#1 152939#1 153106 -152827#4 153216#0 153197#1 152148#4 -152704#2 152940#0 153391#2 -152359 -152157 153508#1 -152788 153153#2 -152392#2 152964#2 152696#3 -152859 152662#4 152853 -152328 -152893#0 -152390 153276#1 -152696#4 152650 152150#2 153286#2 152706#0 153075 152530#2 153094#1 152662#8 153303#0 152148#5 152486#3 152265 -152672#2 153641 152831#0 -152802 153269#2 -153330#1 -152391#2 -152413 -153408#4 153512#1 152816#1 -152452#1 153132 152827#0 152157 -152706#1 153408#0 153157 152932#2 153123#1 152292#1 152761#1 -152991#5 -152601#0 152825#1 -152658 152970#4 -153413 -152943#0 152762#3 -152697#1 152281 -153548 152306 153324#1 152381#3 152692 152813#0 153635 153167 153554#1 -153330#2 153439#4 152884 152659#2 -152932#1 153147#0 153224 153512#4 153210 152812#3 -152934#4 -152936#2 152777 152807#3 153156#0 152612 -152652#0 152672#1 152313#3 152797 152395 152393#0 -152982#2 -153549#2 153118 153220#3 152809#2 153611#0 -153330#3 -152955#2 152533#0 153643 152377 -152884 153193 152696#1 152662#9 152508#0 -152961#1 152397#1 152870#2 153370 -152598 -152761#0 -152799 153153#0 152358#2 -152642#2 153508#0 152781 -153439#2 152865#5 153244#1 -153408#10 -152577#3 152702#1 -152688#1 -152955#3 -153471#0 -152671#4 -152882#1 152416 153112 153212#0 152666 153161 -152800#2 153611#1 152689#1 153141 153244#2 153128 -152300 -152808 152307#2 152132#7 153211#1 -152827#1 152451#0 152867 152694 153143 152895#1 152672#3 152700#1 152601#8 152762#0 153513 -152865#0 153126 153165 153604#1 -152673 153290#1 -152812#3 -153324#3 152580#2 -152486#2 152820#0 152153#1 153278#1 152645#1 -152820#1 152868#1 -152779#0 152859 -153375#2 153164 153291#1 -153324#0 -152827#0 -153409#2 152505 153555 -153408#1 153153#1 152941 -152215 152826#1 152154#3 152875#2 -152809#10 153107 -152701#3 -152703#1 152155#0 153292#0 152813#1 152704#2 153408#4 152869#0 -152446 -152649#2 152939#0 -152762#0 -152597 -153434#0 -152128#0 152933#1 152392#2 153375#4 -152678 153408#9 152356 -152782#2 -152932#4 152643#1 152707 153174#3 152218 152688#0 152475 152577#1 -152774 -152529#2 -152160#1 -152825#2 -153375#1 152683#2 -152395 152643#3 -153400#3 152292#0-AddedOffRampEdge 153249#4 152878#2 -153330#4 153590 152955#8 152504#1 153616 -152813#1 152800#1 -152662#6 153301 153393#2 -153401#2 153006#0 152166 153281 -152696#5 153408#3 152706#3 152602 -152991#6 -152786 152454#0 152601#1 152955#5 -152825#0 -152807#4 -152831#5 152964#3 -153394#1 -152648 152590#1 -152661 153332 152820#1 153154 -152454#0 152809#4 152657 153243#0 153279 -153634 152964#0 153116 -152699 -152508#0 153079 -152943#1 152977#0 153239 -152827#6 -153543#0 -152688#2 153296#1 152862 152509 153246#0 -152907#8 152932#0 152658 152696#5 152882#2 -153554#3 -152940#1 152667#1 -152863 153001#0 152652#1 -152376 152598 -152966#4 153408#5 152811#2 152653#1 152392#0 152662#3 -152665#4 152960#1 -152936#1 152655#1 153159 -152672#1 -152784#4 152811#1 152701#2 -152659#4 -152653#1 152397#2 152606#0 152811#5 152601#6 -152533#0 152991#4 152458#0 152753 153401#0 152601#5 -152461#0 152934#4 -153006#0 152964#1 153369#10 -153326#0 -152960#1 152977#1 152307#1 152577#2 -152286 -152605 153113#0 152863 -152643#1 -153374 153602 153265#0 153287#1 -152696#0 153282#1 152889#1 -152811#0 152585#2 -152960#0 -152792#1 152782#2 153296#0 152170 152378#1 -152448 152954#2 152772 -152787#0 -152763 -152649#0 -152796 -152662#4 -152641 153213 153554#2 -152662#9 153330#3 -152393#2 -152809#11 -153003#7 152824 -152809#0 -152644#5 152151#2 -152982#0 -152692 152414#1 152644#4 -152379 152758 -152647#0 -152417#1 -152894#0 -152344 152786 153375#0 153432 -152710 152130#0 -152577#1 153549#1 -152458#1 153582 -152757 153324#3 153395 -152644#0 152754 -152882#2 152188 152359 152800#2 152304 153240 -152578#0 -152826#0 -152447 -152645#2 -152858 153283#1 153648 153225#1 -153391#3 152607 153546 152379 -152601#8 -153401#1 153276#0 -152889#1 153286#0 153174#2 152865#2 152652#0 -152671#2 153212#1 -152135 -152932#0 152934#5 153330#2 152672#4 -152696#2 -153408#13 152889#0 152700#0 -152955#7 153247#2 -152978 153219#1 152653#0 153391#3 152814 -152465 -152579 -152955#1 -152812#2 -152955#8 -152582#0 153645 -152770#3 152659#5 152417#0 -152781 153551 -152807#3 152770#0 153243#2 153098#0 -153543#2 152665#4 152530#6 152696#0 -152758 153220#4 152582#0 -152349#0 152813#3 -152383#0 152643#5 152961#1 -153394#0 152831#2 -152983 152809#11 153192 152755 152493 153144 152809#1 153491#3 153274#0 -152706#3 153158 153274#1 152293 -152871 -152693 152701#0 152878#0 -152787#1 153326#0 -152680#0 152380 152831#1 153114 152893#0 152127 153225#3 152994 -152683#1 -153375#0 153375#1 -152127 -153439#3 -153375#4 153122 152969 152993 153291#2 153408#14 -152706#0 152150#0 152767 152698 -152703#0 -152649#4 -153399#1 152943#0 152669#0 -153475#7 152451#1 152276 -152875#1 -152475 152683#0 -152853 153145#1 -152704#0 -152393#3 152381#2 153170 152984 -152772 -153006#1 -152216 153102#0 -152955#5 153291#0 -152879#1 -152659#0 -152776 152816#2 153269#0 152821 -152662#10 152132#0 -152895#0 -152218 152782#0 152939#2 -152689#1 -152819#0 152530#0 153219#0 152211 152660 -152600#2 153375#5 -153434#2 152485 153486#0 -152574#0 152417#1 -152667#2 -153633 152164 -152457 152680#2 153129 -152868#1 -152807#5 -152582#3 153078 -152643#0 152307#0 -152755 -152764 152574#0 153374 -153408#5 152392#1 -153324#1 153580 152813#2 -152883 152348#1 153549#2 153515 153267 -153408#15 152815 -152756 152872 152644#3 153330#1 -152450 152165#1 153543#0 153249#1 -152662#5 153303#1 -152600#0 -152672#0 -152768 -152702#0 -152964#0 152933#2 152155#3 153282#0 -153408#8 -152393#4 -152455 153219#2 152165#0 -152964#1 152793 152345 -152642#0 -152865#3 152467#0 -152700#1 153249#0 153249#2 153393#0 152162 153396 152991#7 152868#0 153121#0 153136#0 -152601#9 -153546 152659#3 -152529#4 153227 -152683#0 153293#1 -152852 152877 153162 152672#0 152805#2 -152461#1 152314 -152533#1 -152809#7 152665#0 152887#1 -152676 -152665#0 153006#1 -152778#1 153434#2 152705 152145 -153400#0 152826#0 -153554#1 152703#1 153218 152449#4 152381#1 152874#1 -152655#1 -152529#6 -152541 153434#0 -152645#1 152644#5 -152944 -152805#0 152688#2 152805#0 153297#0 152659#6 153136#1 -152809#2 -153408#3 152393#1 152784#0 152809#9 -152991#4 152770#4 -152811#4 153266 152601#7 152768 -152378#1 -152875#2 152597 153095 153507 152504#0 -153369#12 153409#1 153512#2 152452#2 152787#0 -152689#0 152530#4 -152529#7 -152610#1 152644#2 152580#1 152358#0 -152667#1 -153399#0 152414#0 -152872 152529#7 153209 152344 153190#0 -152386 152896#1 -152392#1 152831#4 -152701#1 152671#4 153222#0 152461#1 152266 153585 -153436#2 -152659#5 152930 152955#7 -153410#0 152481 153101 -152934#1 152991#2 -152697#0 -152662#7 152492 -152822#0 152954#3 153174#0 152819#1 -153393#1 -152645#0 152937 152966#5 152895#0 152978 152453#2 152864 -153409#0 153166#1 -152784#1 152393#3 152780#2 152936#0 152152 -152935 -152865#1 -152680#2 152599 152991#8 152393#4 -153486#0 152605 153324#2 -152214 -152879#0 -152381#0 -152463 152823 153289 153547#2 -152666 152288 153292#2 -152669#1 152648 -152816#1 -152827#5 -152221 -153332 152970#1 -152604 152827#5 152541"/>
    <!-- id="14" name="Roquebrune-Cap-Martin" -->
    <taz id="14" edges="153475#6 153541 153480#1 153349#1 153367#1 -152239 -153353#1 153358#1 -153012 -153349#2 -153366#2 153367#2 -152582#2 -153357#0 -153013#2 153360#0 -153366#0 -152237 153009 -153480#1 -152242 153318#1 153623#0 153376#2 153528#2 -152554 -153376#2 153573#0 -152468 153352#2 153475#4 152333 -153051 152576#4 153366#4 153500#1 -152538 152214 152989#2 152242 153342#2 153016 152989#1 153373#1 -152561#1 152167 -153480#4 152436#1 153350#0 -152573#1 152272 -152553#3 -152435#1 152301#0 153354#1 152578#0 153350#3 153613#0 152967#1 -153318#4 -152160#0 -153318#1 152546 152553#2 152572#4 153355#1 152582#3 -153318#2 152188 153087 -153354#0 153084 -152576#1 152434 -152578#0 -153366#4 152436#0 152271 153350#4 -153361#0 153010 153348 152539 152507#4 -153321#0 -152213 -153563 153089#0 -152334 -152551 -152436#3 -153367#3 -152552#0 152576#0 153085#0 153376#3 -153343#2 153475#0 152558#1 152507#2 153356#1 153364#0 153376#0 153318#2 153086#0 153230 -153376#1 -153354#1 153480#4 153362#0 -153486#3 -153321#4 -153073 153321#2 152436#2 152547 153342#1 153320#1 -153360#3 152204 152215 153362#1 152279 -152561#0 -153480#0 152538 -153344#3 -152965#1 153350#2 -153347 -152579 153338#3 -153367#4 152241 -152576#5 -153575 153357#0 -152241 152582#2 153587 -152563 -153363#0 -153344#4 -152576#4 -152330 -153343#0 152613#1 -152557#1 -152332 -153352#0 -152952 -152243 153357#1 -152572#2 -153360#4 152576#5 -153362#0 152514 152435#0 152573#1 152552#1 -152278 152557#0 -153358#3 -153346 -153475#5 152216 -152576#3 152329 152460#1 -153318#3 153623#1 -152572#4 153195 153233#1 152168 -152570 152203 153536 153017 -152552#1 -153350#0 152511#1 153376#1 -152436#2 152487 153361#0 152340#1 152965#0 -153359#0 153081#1 153318#3 -152168 153344#4 -153358#1 153015 -153480#3 -152564 152269 -153358#0 153345 152558#0 -153360#1 -153007#0 -153011 -153350#3 153563 153233#2 -153360#0 152240 153081#0 -153321#2 -152543 -153550 153353#0 -153348 153542 152965#1 153356#0 153085#1 153354#0 153013#0 152238 -152967#1 -153013#1 153500#0 152584 152578#1 -152553#1 -152436#1 -153475#7 -153016 -152988#1 153349#2 -153350#4 152512 152511#0 153344#2 153231#1 153486#3 153214 152253 152341#1 -153341 -153475#2 152243 153651 152210 -152539 152553#5 -153350#2 153364#1 -153338#0 153376#5 -152216 152554 153373#2 -152553#6 -152436#0 -153321#3 -153376#0 -153342#1 152513 153358#2 -152238 153480#0 -152967#0 -152522 -152989#1 152574#1 152572#2 -152460#1 152548 -153373#0 152213 -152279 153475#2 -152542 -152553#2 -153358#2 153321#4 -153365#1 -152550 152555 153358#3 152507#3 152540 153365#1 152211 152436#3 -153013#0 153352#1 153088 153369#0 -153364#1 -152987 153486#0 153055 -152574#0 153571 -153573#0 153089#1 153344#0 -153356#2 152460#0 -153344#2 -152186 153360#3 -153017 -153009 -153373#2 -153572 152551 -152582#3 152234 -153350#1 -153342#0 152574#0 -152340#1 -152333 -153475#3 153338#0 -153320#2 153475#5 152572#3 153014 153191 153475#1 -152553#0 153319 153361#1 152435#1 153340 153082 -153318#0 -153475#4 153575 152237 153012 152571 153503 153501 152553#1 153370 -153321#1 152543 -153008 -153367#2 -153376#5 -152985 -153573#1 152570 153347 -153366#3 153320#2 153363#1 152521 -153367#0 -152556 152345 153086#1 -152967#2 -153371 -153352#1 152343 -153349#1 -152302 153231#0 152572#0 152985 152515 152254 -152335 153194 -153369#0 153572 152559 153352#0 -153351 -153487 -153015 153341 -153364#0 -152331 -153573#2 -152545 152576#3 -152140 152564 152270 152516 153622 -153338#3 152576#1 -152555 -152547 -152613#1 152967#2 152549 153475#3 152236 -152572#0 152580#2 -153343#1 -153480#2 153349#0 153343#0 153480#2 153573#2 -153376#3 -153359#1 153013#2 153083 -152234 153367#3 153360#1 -152557#0 153342#0 -152215 152335 153613#1 -152540 153528#3 -153014 -153355#0 -152521 152278 152334 153356#2 153358#0 153365#0 -152988#0 152140 -153338#2 -153319 152563 153343#1 -152572#1 -152460#0 152572#1 -152546 152967#0 153321#1 -153342#2 -153349#0 153376#4 152268 -152990 -153356#1 152557#1 153360#4 153502 153091 152302 -153373#1 153073 -153368 152576#2 -152236 -153338#1 152577#0 153090#0 153371 -152965#0 152507#1 -153363#1 152544 153368 152468 -152577#0 153343#2 153234 152483 153480#3 153366#0 152580#1 153573#1 152561#0 -152210 153011 -152548 153350#1 -152487 152267 152553#6 -152211 153232 -153344#0 153013#1 153338#2 -152343 153318#4 153051 152332 -152240 152542 -152483 -153541 -153362#1 152340#0 152336 -152560 -153010 153366#3 153363#0 153318#0 -153361#1 -153344#1 -152340#0 152988#0 153344#3 152556 153599 -152167 152545 152989#0 -153352#2 152988#1 -153475#6 153367#4 153321#3 -152434 -152574#1 153092 152522 153366#1 -152553#5 153528#1 152301#1 153528#0 152560 152561#1 153373#0 153589 153359#0 152579 153475#7 153366#2 152553#3 153355#0 152209 -152558#0 -153320#1 -152336 153007#1 -153345 -153542 -152559 -153356#0 -152435#0 152990 -153486#0 -153055 153353#1 -152214 -153571 -153357#1 153344#1 153346 -153353#0 -152989#0 152331 -153376#4 -152578#1 -153475#1 -152208 -153365#0 -153320#0 153090#1 -153366#1 -153367#1 153359#1 -152576#2 -152584 153550 -152558#1 -153475#0 -153378#5 153487 -153340 153338#1 -152572#3 -152576#0"/>
    <!-- id="13" name="Beausoleil" -->