
<tazs> 
    <!-- id="33" name="gw33" -->
    <taz id="33" edges="152276 152275"/>
    <!-- id="45" name="gw45" -->
    <taz id="45" edges="153661 152558"/>
    <!-- id="34" name="gw34" -->
    <taz id="34" edges="-153350 -153351 153351 -152547 152196 -152194 152547 152551 153350 -152551"/>
    <!-- id="44" name="gw44" -->
    <taz id="44" edges="-152578#1 152578#1"/>
    <!-- id="43" name="gw43" -->
    <taz id="43" edges="-153441 153441"/>
    <!-- id="32" name="gw32" -->
    <taz id="32" edges="152529#0 152326#1"/>
    <!-- id="42" name="gw42" -->
    <taz id="42" edges="153457#0 -153457#0"/>
    <!-- id="41" name="gw41" -->
    <taz id="41" edges="-153465 153465"/>
    <!-- id="31" name="gw31" -->
    <taz id="31" edges="-152194 153483 -153483 152196"/>
    <!-- id="1" name="Monaco" -->
    <taz id="1" edges="152599#1 152818#0 152702 152656#1 -152301 -152796#0 153128 153444#0 -152673#1 152779#2 152290 152610#3 153279#3 -152484 152820#2 152653#0 152158#2 152299 -152705#2 152616 152836#3 -153403#0 152268 -152662#1 152389#1 152840#3 -152705#5 152614 152617 152389#3 152538#6 152799#1 152388 152898#0 152224 153304#1 153004 -152970#0 -152790 -153001#4 -152835#0 -152178 -152400#0 152949#0 152606 152877#2 -152539#6 153236#0 153303#2 152652#6 152774 153172 -152793#3 -152954 -152591#0 152941#4 153304#3 153259#2 -152809#0 152140#6 -153411#2 -153001#8 -152672#1 153142 152591#2 -152992#1 152713#1 -152862 152965#1 153297#1 -152816#2 152881 152992#2 -152766 -152890#0 152514 152172 153110 -152710#1 153155#0 152401#4 153122 -152717 152295 152162#2 153167 152888#0 152801#0 153302#1 -152692#1 -152816#5 152868 152965#2 -152467#1 -153561 153284#1 152609#1 -152657 -152888#0 -152771#3 152788#0 152401#3 152796#0 -153340#4 -153564#4 152542#0 -152680#4 152312 -152965#4 152389#2 152899#0 -152877#3 152820#1 -153419#2 -152539#3 -152389#0 152586#2 152610#0 153340#1 153159#1 -152771#1 -153496#0 152671#4 153144 -153340#2 -153654#0 153420#1 -152456 -152710#0 152495#2 152391#0 152588 153645 -152390 153379#12 153013#6 -152712#0 152156#3 152941#2 153119#0 -152814#2 152686#2 153336#1 -152818#5 -152785 -152798 153085 153115 -152802 152816#1 152797 153292#2 153550#0 -153401#2 153418#0 153555 152879#1 153622 152610#1 -152651#2 152308 153418#16 -152668#1 -153411#1 -152401#3 153256#0 152386#0 153449#4 -152672#2 -152836#5 -152834#0 -152166#1 152952 153147 -152614 152406 -152974#0 -152653#5 152877#0 -152652#2 153298 153643 -152884#1 -152965#10 153259#1 153334#1 152350#0 152226 153557#0 -153001#5 152671#2 152970#1 152156#0 152173#1 152589#1 -152681#0 152810 152883#0 -152792 153170 152950#0 153180 152706#0 152821#2 152946#0 152940 152664#1 152946#1 -152818#11 153280 153385#1 152832 -153384 152654#1 -152822#4 153334#0 152619#1 152942#1 -152364 -152388 153089 -152401#2 152875 153296#0 153418#7 152399#2 -152425 152941#0 152829#1 152770#0 152821#1 -152903#1 -152671#4 -152588 152586#0 152784 152424 -152710#3 152861 -152900 152944#2 -152671#9 -152509 -152877#2 -152655 153153 -152470#1 152954 -152680#0 -152708 -152135 -152619#1 152538#0 152711#0 152872 -152821#0 153126 -152650 -152896#0 152400#1 152822#3 -153409#1 152668#1 153660 -152669 153522#2 -152468 -152368 153443 152162#4 152292 153157#1 152501 -152517#0 -152803 152710#3 153557#1 -152879#1 152163#4 -152654#1 152942#2 -152816#3 152598 152878#3 152356#4 152366#2 152779#4 153626 152423#0 152458#4 153236#2 153082 153136 152862 152771#2 152652#5 152866 152405#2 -152391#1 -152821#2 -152822#3 -152424 152583#0 -152668#3 153325#0 152686#1 153139 153304#2 152890#1 -153340#3 153131#1 153112#0 152787#0 -153645 -152170 -152461#2 153181 152232 153163#1 153297#0 -152463#0 -152776 -152875 152782 152321#1 153157#0 152886 153146#0 153279#1 -152609#1 153235#3 -152539#1 153003 153184#4 152902#0 152889 -152538#3 152367 152384 -152905#1 152610#7 153385#4 -152714 152580 152825#0 152818#2 153592 152652#4 152671#11 153553#0 153405 152811 153080 -152820#4 -152809#1 152223 -152675 -152874#0 152666 -152690 153306#0 153233#0 -152777 -153554#0 152974#3 152823 -152613 -152173#1 -152840#3 152490 153001#6 152829#0 152689#2 152423#1 153002 -152389#1 152831#0 153300#1 152780 152863 -152715#0 153257#1 -153342 152671#8 -152894 -152399#1 -152720 -153418#15 152719 153621#1 153263#1 153655 -152610#9 -153401#0 152708 152672#2 152906#0 -152874#3 152142 152401#1 152820#3 152300#1 -152818#3 -152661#1 152978 152692#0 153225#2 -152461#1 -152586#1 -152674#2 152965#10 153257#2 153557#2 153303#0 152701 -152793#1 -152778 -153654#1 -152389#2 153159#0 153118 -152797 -152652#3 152301 152770#1 -152658#4 -152886 153200#1 -152942#0 152789#2 153401#2 -152879#0 152653#3 153658 153631 152613 152219 153418#12 -152652#1 152661#0 -153385#1 152356#2 -152652#0 -152794 152864 -153558 153165 153559#2 -152974#1 -152287 -152946#2 152869 153293#1 152974#1 153219 152877#1 153449#3 153651 -152599#1 153278#0 153384 153611 -152495#0 152462#0 152303 152173#0 -153418#4 152867 152141 152591#3 153306#1 153594 152538#3 -153418#9 -152771#0 152964#5 -152621 152594#2 152891#1 -152825#0 152426#1 153418#8 -152658#0 152321#3 152140#3 153162 152302 152157#0 153301#0 -153418#14 153418#10 153127#1 -153385#2 153554#2 -152653#3 152715#1 -152664#0 152816#5 -152662#0 153104#0 -152136#0 -152820#2 152902#2 -152822#1 -152770#0 153279#4 153410#1 -152992#0 152157#2 -152829#0 152972 153154 -152836#0 152662#0 153275#0 -153385#3 -153565 152464 153654#1 -152591#2 152656#0 -152294 -152538#2 153001#3 -153481#0 -152820#0 -153002 -152827#2 153151 152323 -153013#7 -152392 -152888#1 153108#1 152903#2 -152676#2 153401#1 -152227 152822#4 153336#0 -152831#1 -153485#7 152665 -152681#5 152821#0 152517#1 152827#3 -152816#0 152950#2 153659 -152222 153518#2 152353 153207#1 -152495#1 -152686#1 152806 -152652#4 152463#0 153001#5 -152867 152974#0 152888#1 -152801#1 -152476#0 153108#0 -152386#1 153419#1 -153401#1 152898#1 152458#2 152681#0 153009 -152950#2 -152881 -153016#1 153313#1 153291 -153001#3 153313#0 152980#2 -152539#2 -152800#1 -152992#2 152652#0 152610#5 -153410#3 152800#0 152352 153304#0 -152719 152707 152939 153228 -152689#3 -153442 152697#2 152159#2 152767 -153553#1 153253#2 -152400#2 152710#2 152476#0 153524#1 -153418#10 152905#1 -152173#0 152836#6 -153004 -152827#1 -152874#2 152676#2 153411#2 153570#0 153184#2 -152674#4 -153278#2 152874#0 152495#3 152941#1 153516#1 152828#0 -153001#2 -152686#2 -152804 -152818#8 -153409#0 153209 -152891#2 -152811 -152716 153302#2 -152296 153410#2 152661#2 -153564#3 -152470#0 -152495#3 -152840#1 152159#1 -152610#6 -152818#1 -152683 152474 152652#3 152705#4 -152615#0 152824 152593 -152350#0 -152609#0 -152400#1 152618 152177#1 -153278#1 152809#1 152871 -152877#1 -152814#0 152227 153200#0 153182 -152941#2 152831#1 152987#0 152706#1 153621#0 -152874#1 152539#2 -152401#4 152586#3 153202 153593 -152610#5 -152784 152315#1 153230#1 152651#1 152162#1 152612 153379#10 152619#0 -152658#1 152809#2 152285 152662#1 153133#1 -152455 152156#1 -153420#1 152681#3 152836#5 152539#0 -152793#2 -152709#0 -152880 152683 153656 -152780 152458#3 153442 -152889 -152422 153619 152668#4 152405#0 152815 152948#0 -152322 -152399#0 -153385#4 152163#0 152507 152659 153275#1 153385#5 -152681#4 -152871 152300#0 -152605 152791#1 -152591#1 152611 153340#3 153342 153292#1 -152237 152943#4 -153418#13 153290 153448 -152168#1 152387 -152682 -152965#5 152904#1 -152705#4 152818#11 -152795 152137 152591#0 -152703 153174 152836#4 -152336 -152594#2 -152953#0 152836#0 -152665 -152877#0 153103#0 153401#4 -152587#1 -152476#1 -152904#1 152140#2 -152976#0 153141 -152868 153229#3 153203 152803 -152273 152944#5 -152818#9 152771#3 152718 152789#1 152671#1 153184#1 -152593 153231 152320 -152861 152814#0 152196 153210 152658#0 153166#1 153550#1 153184#3 152651#0 153410#0 152818#7 152698#1 152315#0 -152779#0 152904#0 -152825#1 153284#0 153340#4 152284 152884#2 -152610#7 -152800#0 153418#9 -153410#1 152713#2 -152764 -152401#1 -152671#5 152899#2 152166#0 152620 -152539#0 -152706#1 -153446#2 152163#2 -153553#2 152161#1 152987#3 -152809#2 152874#3 152688 153258#0 -153418#16 152462#1 152775 -152658#3 -152942#1 153559#0 153600 -153554#2 152294 152828#1 -152672#0 -152706#0 152874#5 152174 -153334#0 -152974#3 -152945 -152661#0 -152963 -152832 -152606 152951 -152677 152673#0 152697#0 -152676#1 -152818#4 152158#0 152948#1 153301#1 152793#2 153011#0 152976#5 152658#1 -152142 -152681#3 153485#7 -152771#2 152778 153158#0 152463#1 152801#1 153287 153650 -152818#7 -152817 152357#0 153289 153234 152350#1 -152836#1 152681#4 -152583#0 152681#2 152994 153164 153418#4 152162#5 -152692#0 152233 153296#1 153229#2 -152219 153644 153249 -152938 -153655 152840#5 152274 -152865 152887#2 152820#4 -152426#1 -153563 153286#0 152822#1 -152946#1 152336 152809#0 -152822#2 153334#3 153225#1 153252 -152616 -152835#2 -153405 -152713#0 153279#2 152502 -152916#8 -152651#0 152671#9 -152591#3 -152816#4 152835#0 152964#2 153418#11 -152678#1 153123#0 152539#1 -152670 152162#3 152965#7 153148#2 -152976#4 153123#1 153121 -152972 153250 152674#3 -152311 153496#0 152973 -152594#0 -152965#6 152157#1 152944#1 153256#1 -152906#0 -152946#0 152298 -152872 -153444#0 -152965#7 152812 153498 152300#0-AddedOffRampEdge -153410#2 -152611 -152594#1 -152836#2 -152950#1 152403 153553#2 153557#3 152980#3 153225#4 152681#1 -153653 152840#0 152993 -152762 -152942#2 152818#1 -152944#2 152159#0 153208 -153418#3 152655 -152401#0 153124 152689#3 152821#3 -153406 152964#1 -152490 153259#0 -152426#0 -152463#1 -152656#0 152903#0 -152295 152389#0 -153418#8 152399#0 152878#4 153168 -152890#1 -152653#4 152946#3 -152674#0 152790 -153016#0 -152903#0 152680#1 152942#0 -153559#3 152894 152597 152422 152783 152874#1 153225#0 153501#3 152140#1 -152137 152321#4 152949#2 -152698#1 -152698#0 153232#0 152587#1 153309 -152384 -153570#0 152170 152771#1 -152819 -152772 152456 152705#5 152147 152818#8 -152779#4 152538#5 152680#3 -152610#0 152586#4 153301#2 -152166#0 -152806 153229#1 -152813 -152781 -152610#2 152546 -152495#5 -153404#1 153145 -152869 -152308 152654#0 153518#0 152716 -152674#3 -153401#3 152140#4 153653 152392 -153336#0 -152818#2 152769#0 152715#0 -152612 152539#6 -153278#0 152874#2 -152840#5 153155#1 -152658#2 152674#4 152943#0 153423 153160 152140#5 -152787#1 153226#0 153254#0 153596 152827#1 -152885 152609#2 -152801#0 153553#1 -152887#0 -152619#0 152874#4 -152873 153221#1 -152673#0 -152652#5 -152619#2 152827#2 -152587#0 -152994 -152177#1 152273 -153404#0 -152403 -152816#1 153001#4 153300#0 152779#3 153161 -153001#6 153595 152390 -152666 152517#0 153131#0 153238 153295 -152891#1 152364 152674#1 -152715#2 152979 -152828#1 -152302 152891#2 152669 -152194 152791#0 152366#0 -152782 152971#0 -152546 152818#4 -152653#2 153380 153156 153565 152460#0 -152671#10 153163#2 -152818#6 152657 152766 153120 -152793#4 153310 152674#0 -152668#4 -152952 152776 -152459 -152827#0 152311 153135 152827#0 152513#1 -152232 152671#3 152681#5 -152517#1 152135 152840#4 152619#2 152814#2 152764 -152950#0 152902#1 -152767 152822#2 152461#1 152710#1 152887#0 -152168#0 -152941#0 152158#1 -152586#3 152772 153112#1 152953#2 -152974#2 -152770#1 -153419#0 152658#3 -152812 -152887#1 -153449#4 153385#0 152976#4 153235#2 152459 153418#14 -152233 152834#1 -152610#1 152680#0 -153340#1 152538#2 152883#1 152356#1 153222#1 -152976#5 -152472 -152821#3 -152652#6 -153564#0 -152668#2 152539#3 -152892 -152664#1 -152836#3 -152700 152873 153385#2 152458#1 152610#8 153105 153259#3 -152685 -153559#2 153403#1 152667 -152165 152791#2 153230#3 -153418#0 153230#5 152714 -152681#1 152455 -152687 -152389#3 153274 -152668#5 153564#3 -152946#3 -153418#12 153229#0 153296#2 152878#0 152671#6 -152965#0 -152988 -152884#2 153146#1 152668#6 -153555 -152807 152366#1 -152654#0 152789#0 152391#1 152785 152668#2 153564#1 153106 152366#3 152980#1 152394 152711#1 -152713#2 153526 -152538#7 152835#2 -152898#0 -152718 153385#3 153525 -152542#1 -152461#0 -152840#0 153403#2 -152805 152903#1 152425 -152836#6 153419#0 153299 -152667 -152827#3 -152659 -152818#10 152289 152833 153183 153138 152793#3 152671#7 152166#1 -152788#0 -153444#2 -152143 152720 152460#1 153254#1 153117 153334#2 153013#7 153409#1 153558 152160 152509 -152796#1 153175 153303#1 -152882 153601#1 152820#5 153286#1 -152705#1 153601#0 152788#1 -152369 -152712#1 153418#3 -153009 -152654#2 152950#1 152715#2 152705#2 153522#3 152670 152470#1 153444#2 152818#10 -152825#2 152467#0 152941#3 152798 153263#0 152953#1 153315 -152953#2 -152822#0 152987#1 -153643 -152352 152697#1 -152904#0 153657 153184#0 152610#9 -153418#6 -152893 153119#1 -153556 -152292 152675 153285 -152993 152161#0 -153411#0 152140#7 152156#2 152705#1 -152697#0 -152874#4 152825#2 -152793#0 153418#6 -152779#5 152980#4 152840#1 152550 -152786 153016#1 152813 152484 -152715#3 -152829#1 -152607 -152791#0 153090 152878#2 -152970#1 153235#1 152163#3 152209 152781 152900 152946#2 152222 152399#1 153420#3 -152474 -152799#1 -152617 152834#2 153522#4 153401#0 -152715#1 152589#2 152712#1 -152702 -152791#1 -153564#1 -152899#1 152605 153016#0 152965#5 152818#6 -153644 -152608 153278#1 152162#0 -152671#1 152680#4 152237 -152899#0 153410#3 -152466 153418#13 152138#1 152426#0 152357#1 152816#4 152587#0 -152707 152786 -152887#2 -152941#3 -152668#6 153127#0 152427 152538#4 152779#0 -152688 152586#1 152658#4 -153559#1 152356#3 152652#2 152818#5 152793#4 152615#0 -153418#7 153420#0 152804 -152779#2 152835#1 -152586#4 153279#0 153559#3 -152953#1 -152864 153401#3 -152224 152878#5 152762 -152387 153157#2 153276 152462#2 152671#5 -152671#3 153081 -153334#3 153255 152468 152943#1 153223 -152971#0 -152651#1 -152965#1 153148#1 152168#1 152177#0 152771#0 -152692#2 -152680#1 153148#0 152386#1 -152835#1 152461#2 152816#3 153379#11 153618 153614#0 152836#1 -152820#3 152470#0 152663 152461#0 152664#0 -152674#1 -153418#11 -152896#1 -153385#0 -152293 152692#2 152822#0 152800#1 152542#1 -152787#0 152678#0 153131#2 -152671#2 -152671#7 152138#0 152296 -152944#0 152687 152405#3 152802 153620 -152891#0 153088 153230#6 152793#1 -152965#8 152870 -152709#1 -153449#3 -152539#4 152653#1 -152680#2 -152971#1 -152550 -152902#2 153307#0 152892 153254#2 152494 152710#0 152717 153253#0 153590 -152834#1 153112#2 152672#1 -152820#1 152322 152466 -152944#4 -152681#2 -153410#0 152156#4 -152944#1 -152618 -152661#2 153166#0 -152671#8 -152303 -152834#2 152680#2 153086 153230#4 -152870 -153449#2 -152394 152401#0 -152940 -153403#3 152705#0 -152821#1 152882 152700 -152965#3 152682 153237 -152350#1 -152898#1 152938 153114 152887#1 152992#1 -152863 152840#2 152385 153225#3 -152538#5 153220 152974#2 152953#0 152676#1 153305 152879#0 153158#1 152818#3 -152357#0 153293#0 153273 153554#0 152987#4 152692#1 152893 152817 153132 152653#4 152314 152971#1 152945 152879#2 153001#8 152383 -153379#12 152178 -152398 152795 -152391#0 -152814#1 -152538#4 -152586#2 152610#4 -152467#0 152877#3 -153418#1 152163#1 -152367 153232#1 153116 152884#1 -152884#0 152591#1 153278#2 -152680#3 152315#2 152369 152825#1 153222#0 152987#2 -152713#1 152814#1 153206 153564#4 152763 153221#0 -152840#4 -153336#1 152165 153516#2 152678#1 -152177#0 -153418#5 -152678#0 -152710#2 -153379#10 152398 152594#1 152779#5 -152774 152405#1 -152223 152153 153403#0 -152399#2 153418#5 152518 153561 152787#1 152651#2 152538#7 152476#1 152836#2 -152138#0 -152138#1 152672#0 152988 152765 153559#1 153554#1 -153334#1 153311 -152810 -152610#3 -152620 -152312 -152773 152653#2 -152941#1 -152831#0 152970#0 153171 152156#5 152818#9 -152705#3 152513#0 152965#3 152965#8 152495#0 153419#2 153340#2 152673#1 153313#2 -153403#1 153418#1 153001#2 -153564#2 -153013#6 152685 152539#4 -152671#6 -152689#0 -153011#0 152690 153403#3 -153420#2 152965#4 153591 153516#0 152650 153001#7 -152495#2 152964#3 152965#6 153169 152610#6 152943#2 152321#2 152608 -152783 152885 -152840#6 153522#0 152709#1 152293 -152663 -152653#1 152472 152140#0 152830 -153420#3 -152965#2 152674#2 -152610#8 -152464 -152840#2 153176#0 -153420#0 153257#0 152880 -153553#0 152896#1 -153401#4 -153423 152820#0 152462#3 -152538#6 153404#0 -152226 153111 152943#3 -152697#2 153418#15 153523 153143 -152229 153556 153272 152368 152653#5 152876 152658#2 153294 152946#4 152947 153451 -152902#1 -153334#2 153176#1 153325#1 -152808 153654#0 152287 152269 -152597 -153554#1 152769#1 152668#5 152805 -152386#0 152457 152878#1 153302#0 152668#0 -152788#1 152807 152400#0 152495#5 -153559#0 152654#2 -152209 153277 -152689#2 153259#4 152703 152944#4 153226#1 153258#1 153253#1 -152668#0 -152697#1 -152609#2 -152705#0 -152836#4 152949#1 -153419#1 153411#0 -152457 153614#1 152890#0 -153403#2 153406 152709#0 -152779#3 153517 153288#1 152777 153449#5 -152823 152164#1 152465 152671#10 152705#3 153411#1 -152765 152401#2 152495#1 153612 152992#0 -152542#0 152652#1 152715#3 153307#1 -152653#0 -152902#0 153293#2 153518#1 153522#1 152621 152964#4 153177 152315#3 -152538#0 153404#1 153233#2 152793#0 152816#2 152607 -152944#5 153163#0 153230#2 153420#2 152661#1 153134 -152172 152840#6 -152815 -152610#4 -152711#0 152610#2 -152876 -152586#0 152467#1 152796#1 -153001#7 -152701 153104#1 152677 -152818#0 -152941#4 -152383 152400#2 153292#0 152668#3 153235#0 -153379#11 153564#2 -152791#2 -152828#0"/>
    <!-- id="14" name="Roquebrune-Cap-Martin" -->
    <taz id="14" edges="152523 153360#1 -153485#5 153538#0 152562#6 153328#1 -153485#0 152219 153551 -153371#1 -153353#0 152999#0 153368#2 -153377#4 153100#1 -152591#3 153348#0 152587#0 152995 -152287 153377#1 -152977#1 -152242 153205 -153021 153243#1 -152477 -153348#1 -153017#0 -153357 153661 153383#2 -152548 152591#3 153375#0 -152570#1 -152445#1 -152245 153496#0 -153331#0 -153490#3 -153000 153362#1 -153376#4 152224 153357 -153552 -153368#0 -152562#6 152249 152521 153094 -152585#5 -152224 -152573 152477 -152148 153485#2 152277 152341 152975#1 152309#1 153355 -153386#4 -153490#1 153597 153609 153368#1 153383#0 153352#2 152561#1 -153378 -153348#2 -152962 153552 -152555 -153360#2 152349#1 153359#1 -152561#1 153328#0 153490#0 153485#6 153485#4 -152341 -153366#1 153386#5 -153370#2 -153372#1 -153376#0 -152530 -153361 152591#2 152516#3 -152496 -152591#2 152251 153100#0 -153024 153364#0 153538#1 -153328#4 -152469#1 -153386#2 -152581#0 -152552 -153379#0 152444#1 152531 153365#1 153538#3 153374#0 -153328#3 153093 153358 152492 -153352#0 -153386#5 153353#1 153377#3 152445#0 153243#2 -153485#3 -153485#7 153496#3 153370#3 153360#0 153386#4 -152585#2 -153376#3 153386#3 153204 153366#0 153369#1 153362#0 -152222 -152567#0 152557 153490#2 -152570#0 152353 153017#1 153376#2 153328#4 -153386#1 -153064#1 -152585#4 -153352#1 -153352#2 152587#1 -153364#0 -153353#1 153000 -153360#1 152339 153377#4 152445#1 153364#1 153023#2 -153355 153099#0 153354#1 -153560 152522 152585#5 153354#4 -153359#0 152585#4 153370#4 -153359#1 153368#3 -153328#0 153379#0 -152585#3 153240 152286 152570#1 -153485#4 -153386#3 152562#1 152309#0 152585#2 -152249 153354#0 -153490#2 -153581 152340 -153367#1 -153368#3 152977#0 153092 -153362#1 152248 -153496#0 152250 -153375#0 -153377#0 -152444#1 153632 152569 152342 -152247 152246 -153330#2 153497 153330#1 -153490#0 -152244 -153376#2 152568 152588 -152563 153485#1 152524 152977#1 153583#1 -152557 -152587#0 -153363#0 -152567#1 152261 152211 153027 -153365#0 -152344 153351 -152338 -153025 152999#2 153328#3 153360#3 153348#2 -153364#1 153022 153383#1 153386#2 -153328#2 -153388#5 152998#1 152555 152567#0 152469#1 153099#1 -152194 -153367#0 153224 153583#0 -153496#3 -152218 152516#4 -153374#1 153380 152593 152445#3 -153374#0 153362#2 -153583#0 152566#1 153350 153366#2 153490#1 153331#2 152581#0 152975#0 153370#2 152520#1 153538#2 -152444#0 -153019 152242 -152562#5 153098 153585 -153027 153374#1 153328#2 152348#0 153244 -152977#0 152556 153354#3 153582 -152561#0 152582#1 -153375#1 153370#0 153490#4 -153353#2 153511 152589#1 -153023#2 153386#1 -153366#0 153354#2 -152223 153375#1 153546 -153350 -152168#0 152348#1 -152581#3 153381 152579 153359#0 152344 -153485#1 -152340 153026 -153497 152280 -152998#1 -152566#0 -152554 -152547 153095#0 -153360#3 152279 -153363#1 -153348#0 -152581#2 -153331#2 153024 153023#0 152565 -153356 -153370#3 -153351 152999#1 152581#4 153377#2 -153018 152581#2 153367#1 153242 153372#1 -152250 152310 153352#1 153020 -152251 -152581#4 -153023#0 -153354#4 -152175 152562#2 153095#1 -153583#1 153348#1 -152445#2 152552 153201 -153369#0 -152588 -152562#4 152520#0 152566#0 152586#0 153373#1 -152443 -153362#2 153376#1 -152562#3 152547 -152977#2 -153026 153633#1 -153485#2 153330#2 -153331#1 152516#1 -153583#2 -152565 153371#0 -152562#2 -152975#0 -152568 -153354#2 153378 152445#2 -152216 153096#0 -153354#3 152221 152217 -153023#1 152570#0 153102 153366#1 -153373#0 152581#3 -153370#0 -153582 153061 -152348#1 -152246 -152581#1 -153330#1 -153490#4 -153371#0 152525 -152248 153353#0 153369#0 -152975#1 153241#0 152337 152562#3 152443 153021 -152221 -152531 153485#0 152560 -152560 153370#1 153365#0 153096#1 153353#2 -153330#0 -152998#0 152212 152554 152585#1 153241#1 -153386#0 -152339 -153366#2 153331#3 153373#0 -153331#4 153023#1 -153360#4 152567#1 -152176 -152587#1 152562#4 153599 -153083 152276 153485#3 153367#0 153573 -153369#1 153363#0 152583#0 153633#0 152278 -152593 -153358 -153372#0 -152343 152622#1 -152582#1 152196 -152572 -152583#1 -153383#0 152245 152343 152262 -152445#0 -152569 153359#2 -152562#1 152287 153360#4 -153360#0 152548 153329 153019 152581#1 -152562#0 -153551 153376#0 -152579 -153383#2 -153376#1 153091#1 -153368#2 152244 152573 152585#3 152351 152553 -153328#1 152580 153583#2 -152622#1 -153329 -153020 -152469#0 152275 153581 -152995 153512 -152549 -152286 153360#2 -153061 -153065 -153359#2 152549 153376#3 153386#0 -153370#4 152516#2 153101 153485#5 152223 152572 -153354#0 -152342 -153354#1 -152997 -152999#0 152998#0 -153370#1 -152556 153363#1 152218 153513 -153573 152563 153097 153376#4 -152351 153510#1 -152551 152175 153025 152148 -153485#6 -153383#1 -153585 152585#0 153091#0 153560 152564 -152585#0 152444#0 153368#0 153485#7 -153368#1 153348#3 153372#0 -152564 -153022 152977#2 153623#0 -152445#3 152176 153510#0 153065 152558 153352#0 -152492 -152583#0 152583#1 152530 153331#1 -153362#0 153490#3 152222 -152566#1 -152586#0 153331#4 152496 153356 -152219 153371#1 153083 -152559 152562#5 -152585#1 -153373#1 153623#1 -152999#1 -153377#3 -152310 152551 -153348#3 152589#2 152469#0 -153377#1 -153331#3 -152348#0 -153377#2 -153381"/>
    <!-- id="13" name="Beausoleil" -->