
<tazs> 
    <!-- id="33" name="gw33" -->
    <taz id="33" edges="152273 152272"/>
    <!-- id="45" name="gw45" -->
    <taz id="45" edges="152554 153656"/>
    <!-- id="34" name="gw34" -->
    <taz id="34" edges="153346 153345 -152543 152547 -152547 -152191 152543 152193 -153345 -153346"/>
    <!-- id="44" name="gw44" -->
    <taz id="44" edges="-152574#1 152574#1"/>
    <!-- id="43" name="gw43" -->
    <taz id="43" edges="153436 -153436"/>
    <!-- id="32" name="gw32" -->
    <taz id="32" edges="152525#0 152323#1"/>
    <!-- id="42" name="gw42" -->
    <taz id="42" edges="153452#0 -153452#0"/>
    <!-- id="41" name="gw41" -->
    <taz id="41" edges="-153460 153460"/>
    <!-- id="31" name="gw31" -->
    <taz id="31" edges="152193 -153478 -152191 153478"/>
    <!-- id="1" name="Monaco" -->
    <taz id="1" edges="-152817#1 152767#0 153320#0 152153#3 153652 -153413#5 -152135#0 153552#0 153396#0 153444#4 153298#0 152781 -153548#0 153252#0 153128#1 153225#4 153296#1 152944#1 -152776 152948#1 152883#1 -152170#0 152363#0 -152761 -153413#11 -152818#1 152391 152535#4 152823#0 -152652#0 152395 152836#0 -152900#0 152860 152767#2 153244 153287#2 153226 -152683 -152162 153398#3 152787#0 -152996#6 152363#1 152899#0 152785#1 153179#1 152458#3 153291#2 152347#0 152514 152942 152960#3 152934 152959#3 -152653 152534#6 153480#7 -152658#1 -153380#0 153279#0 153297#1 152870#2 153116 -152885 152585#1 153149 152534#7 -152385 152308 -153413#15 153101 -152703 153204 152457#1 152615#0 -152534#7 152936 152289 152777 152857 -153413#16 152810#0 153139 152422#1 152814#0 -153439#2 153254#3 -152869 152870#3 -152175 153080 152945#0 153654 152939#5 153281#0 -153413#14 152669#0 153545#1 -152814#11 152220 152883#0 153302#0 -152793 -152460 -152870#0 -152685#0 152296 -152860 152867 152989 152824#1 152648#2 152677#4 153415#3 153140 153512 -152709#2 -153401 153648 -153480#7 153228#0 152879#1 153520 153224#3 152858 -152796#0 152709#2 152820 152312#0 153251#0 153133 -152706#0 -152787#0 -152832#5 153414#2 -152958 152836#6 152880#1 152941#0 152398#3 153231#1 152813 152491#5 152667#2 152312#1 152350 153444#3 -153550 -152873#3 152673 -152292 -152535#6 152765#1 152363#3 153113 -152648#1 -152664#1 153513#0 152821#2 153154#1 153280 -152457#1 152779 153329#3 152159#4 153225#0 -152682#2 152879#0 153587 152453 152707#0 152974 153172 152615#2 152677#1 -152347#0 152154#0 153606 152535#6 -152898#0 152667#6 152775#3 -153398#0 -152787#1 152354#1 -152888 152988 153011#0 153114#0 152387 -152452 152297#1 152174#0 -152472#1 -153413#4 153521 152711#0 152767#1 152874#5 152587#3 -152778 -152870#4 152654#2 153649#1 -152810#0 152712 153254#2 -152650#1 -152940 -152648#4 -152814#5 -152660#0 152816#3 152775#0 152454#2 152667#1 152221 -152704 152135#1 -152361 152885 -153413#10 152685#2 153308#2 152649#4 152826 152794 152884#1 -152799 -153008#6 153554#0 152160#2 152902#0 -152821#0 -152806 -152593 -152960#8 153590 153301#1 -152398#0 152402#1 -152383#1 -152701#4 152454#4 153248#0 153556 -152674#1 153297#0 153283#1 153081 -153559#2 153335#4 153004 -152606#0 153008#6 -152798 -152384 153413#7 152708#1 153300 -152814#4 -152789#1 153214 152354#0 152959#5 152137#1 152312#3 153614 152509#1 -152308 153413#4 153609#1 152454#3 -152676#4 153413#6 153320#1 152830#1 152946 -152486 152823#3 -152616 -152606#8 152969#2 -152831#2 -153374#10 152817#0 153143#1 -152135#1 -152226 -153413#8 -152457#0 152982#1 -152608 -152960#4 -152396#2 152704 152778 152817#3 152786 153335#1 153302#1 -152491#5 -152938#1 -152883#0 -153549#2 153560 152966#1 152937#2 152960#5 -152814#1 153294 152385 153103#0 153231#2 -152781 152683 -152814#0 -152868 152766#0 153596#0 -152770 -152937#3 152669#1 152711#2 153591 152965#1 152490 152647#1 -152397#0 -152880#1 152472#0 152707#1 152999 153161#0 -152836#6 152775#5 152969#1 152677#3 152668#2 -152767#0 152960#10 -153553 -152688#2 -153559#1 -152293 152156#0 152160#1 152318#2 152491#2 153152#2 153380#4 -152397#1 152699 -152677#4 152159#3 152347#1 -152678 152677#0 -152677#5 153225#1 -152649#5 152814#3 153554#2 152594 152676#1 152711#1 153164 152649#3 152693#0 -152817#0 -152693#2 152364 153159 -152965#1 -152418 -152938#0 -152347#1 -152386#1 -152670#2 152667#5 -152861 153298#1 153443 152459#1 -152649#0 153589 152652#1 152982#2 152606#5 -153554#1 152513#0 -153406#1 152153#5 -152649#1 -152682#1 -152971#0 153607 152894#1 153083 152775#2 -152670#3 152386#2 -153405#2 152398#4 152648#0 153511#2 152605#2 153626 -153335#1 -153559#3 -152804 152935 -152670#1 -152886#0 152534#2 152590#2 -152899#1 152657#0 152651 152230 153380#2 -152298 -152949 152886#0 -152648#5 -152684 -153329#2 -152817#3 -152814#2 152882 -153399#1 153150#0 152667#11 -153273#2 -152668#2 -152657#2 -152381 -153400 -152825#0 152300 152400 152982#4 153396#4 153143#0 -152878 153375 152455 152162 152509#0 152812#3 152171 -152814#10 -152814#7 152662 -152671 153279#1 152873#0 -152794 153299#3 152770 152585#2 -153398#1 153161#1 -152133#0 153613 -152960#6 152462 -152654#3 152965#0 -153273#0 152170#0 152333 152403 -152900#1 152657#1 -152809 152898#1 -152174#1 -152542 152135#0 153227#1 152583#1 152606#3 153588 153107#2 152318#3 -152132 153170 -152789#2 -153554#2 -152818#3 153158#1 152814#10 152814#9 152534#4 152397#2 153126#0 -152784#1 153638 153329#0 153107#0 153413#14 152831#2 -152821#2 153198 -152887#0 152817#1 153299#2 -153406#0 153254#0 -152299 -152831#1 152799 152286 -153006#0 -152939#1 -152818#0 152137#0 152811 -152890 -152396#1 -152960#7 153585 152160#4 152709#1 153335#3 153413#13 152654#4 -152996#8 152996#2 153158#2 -153476#0 -152676#1 153446 153552#3 152309 -152895#1 152797#1 152805#1 152613 -152538#0 153131 152864 153290 152789#2 -152960#0 152297#0-AddedOffRampEdge -152996#2 -152647#1 152134 153006#0 153301#0 152389 -152667#7 152606#4 152796#1 -152216 -153406#2 152421 153305 153286 -152677#3 152648#5 153220#0 153195#1 -152711#2 -152380 152397#1 152874#2 -152792#1 152969#3 152971#4 152155#1 -152654#0 -153639 152760 152402#0 -152936 152363#2 152582#1 -152664#4 -152491#2 152606#9 152939#1 153553 152997 -152220 152666 -152873#0 -152766#1 152818#2 -152535#1 152491#1 152156#1 -152535#0 153413#8 -152819 153153#1 152716 -152606#1 152419#0 -153398#2 152317 152996#5 153122#1 -152825#1 152682#1 153413#0 152817#2 -152767#3 152139 152648#6 153130 152688#0 -152300 -152587#1 152601 -152705#0 152589 152968 152649#1 -152939#2 -153273#1 153118#1 152595#1 152672#1 152646 -152824#1 -153414#0 -152816#1 152767#3 153287#1 152603 -152140 -152711#1 -152983 -152836#4 152667#9 152650#2 153518 153129 153273#2 152761 152290 153249#0 153146 152795#1 -152422#1 152759 -152459#1 152660#1 -152812#2 152353#1 152648#3 152150 -152817#2 153152#0 -152939#5 153405#0 -152872 -153551 152881 -152789#0 -152987#1 152901#1 152827#0 -153415#2 153565#0 152538#1 152590#1 -152395 152773 -153396#3 153548#0 -152170#1 -153396#0 -152783#1 -152706#2 -152821#1 152137#4 152801 152818#0 152223 153653 -152470 -152823#1 152832#1 -152760 -152873#2 152829 -152654#4 -152667#4 -152605#2 152160#0 153179#4 -152814#6 152587#0 153175 -152832#4 152606#2 -152871 -152814#9 -152763 153615 152715 152814#8 152684 152706#0 -152865 -152462 152299 153559#3 -152960#1 153415#0 153250 153084 152787#1 152609 -152676#2 153118#0 -152646 152546 -152805#0 152661 153227#0 153650 153098#0 153380#5 152765#0 152895#0 -152664#6 152155#2 152451 152937#3 -152668#0 152155#0 152538#0 152701#0 152831#1 153299#1 153438 153158#0 -152768 152472#1 152828 -152309 153224#0 153414#0 -152824#0 153112 152542 -152701#5 152900#1 152271 -152772 152664#1 152616 -152711#3 -152867 -152937#2 -152999 152883#2 -152472#0 152667#8 152159#1 152608 152702#0 152975#1 -152582#2 152464 153228#1 -152814#3 -152174#0 152457#2 153117 153413#1 152398#1 -152792#0 152320 152870#1 -152863 153335#2 152653 152361 153171#1 152174#1 152975#4 153216#0 152156#2 -152966#1 153517#3 152470 153329#1 -152606#4 -152587#3 -152960#10 152806 152466#0 152686 -152169 -152398#4 153254#4 -152535#4 153282 -152457#2 153617 153100 153374#11 152270 153616#0 152785#2 152944#0 152982#0 -152191 -152667#3 -152590#0 152648#1 -152672#1 -152669#0 153552#2 -152895#0 -153335#4 152386#3 153154#0 -152898#2 153649#0 152894#0 -152659 153179#3 152297#0 -152996#5 153404#1 -152887#1 152960#7 -152391 -152590#1 -153491#0 153273#1 -152667#5 152659 153288#2 -152892#0 152836#5 153085 -153380#3 -152899#0 153231#0 -152775#2 152224 -152884#1 152714 153399#0 -152602 152312#2 -152582#3 152685#3 152869 152606#1 152832#0 -153404#0 153413#12 152816#1 152458#0 153156 -153559#0 -152614 -152676#3 153137 152497 152938#0 152871 152875#0 152295 153221#1 153621 152943#0 -152670#4 -153331#1 152812#4 -152677#2 152784#0 -152870#1 152617 -152812#1 -152810#1 153298#2 152878 -152987#0 -152811 -152939#4 -153413#6 152701#3 153233 152941#2 152939#4 -152898#1 -152505 -152661 153218 152677#2 152821#0 -152693#0 153491#0 153306 -152491#3 153179#0 -152655 -152805#2 -152648#0 153197 -152333 153272 -153444#2 152159#0 -152681 152873#1 -153558 152865 -152654#1 152831#0 153126#1 153651 152654#3 152664#4 152987#2 152402#2 153220#1 152967 -152857 152938#2 152996#7 -152589 153127 152872 152611#0 -152685#2 -153415#3 153123 153285 152282 152505 -152758 -153405#0 -153374#11 152785#0 152982#3 -152389 152825#1 -152673 -152606#9 -153396#4 -152767#2 153406#0 152863 -152400 -153379 153077 -152769 152789#1 152874#0 153655 152945#1 -152832#1 -152800 152670#4 152814#4 -152827#0 152137#3 153401 -152791 -152667#9 -152884#0 -152830#2 152859 153273#0 152534#0 -152883#1 153221#0 152701#1 -152694#1 -152698 152292 -152601 153439#0 152710 -152832#3 152787#2 -152604 -152787#2 -152836#1 153296#2 -152290 -153414#2 -152615#2 153331#0 -152649#2 153166 153269 -153650 -152534#5 -152667#8 -152802 152293 -152988 -152466#0 -152818#2 152165#1 -152305 -152830#1 152825#0 -152831#0 -152590#2 152987#0 -152883#2 153308#0 -152165#0 152667#7 -152657#0 -152606#3 152899#2 153152#1 152681 -152206 153270#1 152888 -153444#4 153406#2 -152582#0 152875#1 153396#2 -152939#0 -153441#2 153251#1 -153415#1 -152167 -152812#3 152937#0 -152836#0 -152595#1 152886#1 152678 -152605#0 152349 152873#2 152535#1 152873#3 152654#1 153245 -152667#10 -153374#12 153076 -153560 152810#2 153267 152137#5 153304 153178 -152814#8 -152823#3 -152387 -152901#1 153586 -152605#1 -152221 152944#2 152137#7 -152938#2 -153437 153126#2 -152701#1 -152894#1 -152937#0 153413#9 -152654#2 153559#2 152818#3 -153335#3 152677#5 -152583#1 -152960#5 152163#0 152418 -152934 152318#1 152816#5 153398#0 -152786 -152789#3 152973 152396#2 152702#1 152153#1 152582#0 -152892#1 -152896 153413#16 152311 -153413#1 152866 -152705#1 152771 152649#5 153230#2 152805#0 152452 152960#6 152229 152812#1 -152664#3 -152816#3 153299#0 153549#0 -153548#2 152587#1 -152699 152780 -152491#0 152960#4 152456#0 -153011#1 -153405#1 -152796#1 -152223 152892#1 -152289 152498 -152134 152783#1 153337 -152711#0 -152816#2 -153413#3 -152422#0 -152815 152463#0 -152538#1 -153439#0 152789#3 153150#1 153217#0 -152606#6 -152989 152153#2 152766#1 -152881 152792#1 152812#2 -153415#0 -152971#5 -152875#0 152775#4 152654#0 153554#3 152816#4 153415#1 153308#1 -152455 152398#0 152792#0 -152801 -152611#0 -152996#3 -153337 153230#1 152158#0 153284 153283#0 -152706#3 152784#1 -152163#1 152383#1 152676#2 -152775#5 152664#3 152606#6 153513#2 -152219 152206 153122#0 152381 152814#11 -152139 -152615#0 -152716 152583#0 153554#1 152319 152158#1 153160 152937#1 152971#5 153249#2 152832#4 -152669#1 152582#2 -152513#1 153380#1 152776 152896 -152383#0 152701#5 -152291 -152513#0 152649#0 -152388#0 153229 152948#0 -152987#2 152900#0 -153648 153640 152157 152697 -152421 -152702#1 152169 152386#1 -152805#1 153111 -153638 -152708#0 -152997 152943#1 153252#1 -152667#1 152802 153258#1 152706#3 -152665 152701#2 152420 -152708#1 153169 152664#6 153228#2 153258#0 153405#2 -152784#0 -153413#9 153559#4 153165 -152386#2 152887#1 152234 152889 152670#0 152353#3 -152945#0 152798 152960#2 153396#3 153548#2 -152617 152824#0 -152866 -153554#3 -152808 -153413#12 153224#1 153380#3 153216#1 152298 -152615#1 153107#1 153203 153274#4 153552#1 152667#3 -152163#0 -152876 -152912#8 152800 -152827#1 -152902#0 -152832#6 153513#1 -153404#1 -152319 -153004 152975#3 152706#1 153201 -153413#7 -152823#0 -152649#3 -152666 152167 -152795#1 152660#0 -152880#2 152454#1 -152780 152587#2 -153554#0 152402#3 152674#1 152510 -152813 152491#3 152388#0 152877 152941#3 153413#15 153247 152832#3 -152807 152819 152144 152216 152582#3 152579#0 -152686 152584 152696 -153329#3 -152648#6 152652#0 -152812#5 -152996#4 152827#1 152386#0 153288#1 152658#0 -152697 152287 153253#0 153274#1 153205 153418 152612 -152670#0 -152688#1 152688#2 -152836#5 152808 -152767#1 -152810#2 -152491#1 152655 152132 152814#7 -152816#4 152874#1 152219 153153#0 -152858 152772 -152783#0 -152534#4 152890 -152677#1 153177 -152649#4 153143#2 152816#0 152876 152461 -152696 152701#4 152814#6 -153008#7 153293 152789#0 153444#5 153413#5 153099#0 152816#2 153254#1 153176 -152965#0 153550 152763 152648#4 153171#0 153179#2 -152676#0 -152584 152996#4 153331#1 -152582#4 -152775#0 153291#1 152960#8 153379 -152397#2 152870#5 -152546 -152535#2 -153444#3 -152650#2 153295#0 152836#4 152783#0 152899#1 -152870#2 152388#1 -152386#0 -152969#1 -152658#0 152647#0 152535#2 153223 -152789#4 -152832#2 -153396#2 153274#0 152657#2 -152453 152513#1 153253#1 152423 152457#0 -152685#3 153224#2 152676#4 152593 152667#4 152663 -152648#2 -153413#0 153292#1 152694#1 152154#1 152758 152396#1 152422#0 -152894#0 -152388#1 152193 -152947 152814#2 152671 152664#0 -152889 152456#1 -152459#0 -152775#3 -152647#0 153281#1 153329#2 152466#1 152582#4 152996#3 -152613 153549#2 153439#2 152998 152862 153496#3 152607 -152610 -152270 152821#1 -153396#1 152713 152887#2 -152230 -153649#0 152875#2 -152667#6 -152709#1 152606#0 152693#2 152807 -152651 -152875#1 -152534#0 153217#1 -152679 -152694#0 152830#2 152153#0 -152398#2 -152960#2 153310 153248#2 152705#1 -152828 -153335#2 -152606#5 152353#4 152284 153511#0 -152607 153162 -152234 -152969#3 153115 -153649#1 -152941#0 -152582#1 153295#1 -152836#3 152672#2 152966#0 153148 153413#3 152534#5 152486 -152420 152604 152941#1 -152534#2 152647#2 152868 153559#1 153268 -152672#2 153511#1 152380 152159#5 152668#0 -152606#7 -152648#3 -152284 152382 153413#10 -152466#1 153163 153249#1 -152887#2 152606#8 152138 153292#0 152676#0 153225#2 -152701#3 152153#4 152768 153252#2 152265 -152707#0 -152941#1 152705#0 152836#1 153109 153248#1 152458#2 153616#1 152774 -152693#1 152468 -153398#3 -152882 -152688#0 152996#6 152797#0 152836#3 -152969#0 153646 153134 152491#0 -152782 -153413#13 152459#0 153138 -152587#0 153374#10 152281 -152971#4 153287#0 152670#2 -152777 153517#0 153114#1 153274#3 152137#2 -152779 -153549#1 152706#2 152266 152818#1 -152701#0 152460 152823#2 -152715 152803 -152937#4 152318#4 152884#0 -152667#2 152606#7 152832#5 -153011#0 152576 152870#4 -152354#0 152983 153380#0 153220#2 -152662 152503 153297#2 153141#0 -152714 -152398#3 152814#5 153493 -152836#2 152159#2 -152877 152938#1 153517#4 -153414#1 -152774 153398#2 153548#1 152809 -152587#2 -152664#2 152305 -152603 152463#1 152384 -152674#0 -152398#1 -152664#0 -152677#0 -152709#0 152419#1 153517#1 153519#1 152665 153142 152975#2 152291 153545#0 -152364 152782 -152349 153609#0 152960#1 -152463#0 152874#3 153220#4 152945#2 -152386#3 -152812#0 152810#1 -152788 152163#1 153099#1 153399#1 152836#2 153011#1 -152663 -152762 153220#3 -152664#5 152674#0 152703 152940 -152816#0 152959#4 153157 152650#0 153275 152398#2 -152766#0 153595 153645 153121 -152797#1 152161#1 -152948#1 153271 -152830#0 153396#1 -152966#0 153406#1 -152886#1 153551 152160#3 152789#4 -152165#1 152814#1 -152941#2 153225#5 152832#2 153230#0 153413#11 152949 153110 -153405#3 -153380#4 -152609 -152967 153232 153415#2 -152797#0 -153329#1 152987#1 152614 153289 -152702#0 -153399#0 -152941#3 152959#2 153291#0 152658#1 153119 -152864 152670#1 152898#0 153400 152664#2 153549#1 153225#3 153405#1 -152706#1 152175 153106 -152480 152353#2 -153640 -152647#2 153414#1 152688#1 -152657#1 -152668#1 153105 152805#2 -153559#4 152480 152812#5 -153329#0 153103#1 -152832#0 -152463#1 -152775#4 -152660#1 152682#2 153008#7 -152873#1 152693#1 -152945#2 153405#3 152170#1 -153418 152996#8 -152468 -152969#2 -153331#0 152602 -152773 152969#0 153141#1 153167 152947 -152534#6 -152880#0 152676#3 152154#2 153136 152870#0 -152859 -152712 -153549#0 153274#2 -152790 -153380#2 152874#4 153639 -152583#0 152823#1 152832#6 153215 152535#0 152650#1 -153380#1 -152224 -152464 152664#5 153075 153155 153596#1 152791 152895#2 -152612 152667#10 -152713 152137#6 153398#1 152959#1 -152451 152762 152939#2 -152948#0 152397#0 -152579#0 152711#3 -152650#0 152880#2 153437 152796#0 153225#6 152649#2 -153556 152605#1 152941#4 -152710 152679 152670#3 -152945#1 -152996#7 152458#1 153296#0 153517#2 -152229 153230#3 153151 -152606#2 152615#1 152383#0 152610 -153548#1 -152812#4 152793 153288#0 -152701#2 152698 152898#2 -152870#3 153270#0 -152823#2 153202#1 -152937#1 152937#4 -152803 -152960#3 153195#0 152668#1"/>
    <!-- id="14" name="Roquebrune-Cap-Martin" -->
    <taz id="14" edges="-153354#1 153372#3 -152558#5 152526 -152543 -153365#4 152569 152995 152583#1 -153372#1 153199 -152337 -152589 152993#1 153355#0 -152247 153091#1 -153016 -152248 153508 -153019 -153014 -152335 153372#2 152581#4 -152581#2 -152336 -153369#1 -152553 152441#0 152193 153326#4 152554 152577#0 153086#1 152512#4 153346 -153372#2 -152307 153492 -153325#1 -152994#0 -153365#0 152243 -152145 153349#1 -153480#2 153347#2 153347#1 153362#1 152283 153200 -153018#1 -152993#0 153012#1 153576 152551 -153349#2 -153343#3 153368#0 153555 -153491#3 -152215 152560 -153371#2 -153017 -152557#1 -153357#2 -153546 152218 153381#4 153369#1 153480#7 -152545 -152972#1 -153369#0 153374#0 -153354#0 152585#1 -152577#4 153480#3 -152581#0 153349#0 -152213 -152246 152563#0 153485#1 -153358#0 -152558#3 152577#1 -152165#0 153370#0 -153326#1 152558#1 -153367#1 152972#2 152284 152557#1 -152577#3 153580 -152216 153097 153594 152521 153355#4 152220 153371#4 152579#1 153343#1 -152558#0 152440#1 -153015 -152582#0 153371#3 -153580 153365#1 152336 153353 153362#0 -152552 152307 -153371#3 152516#1 153094#1 153347#0 152544 -153480#6 -153547 152558#5 153355#3 153093 152562#1 153480#4 153365#3 152520 153627 152492 153018#0 -153347#2 -152284 153089 153015 152517 -152556 152545 153546 152552 -153480#7 153381#1 -152348 152618#1 153533#1 152348 -153371#0 152275 153348#2 -152566#0 -153349#1 153348#0 -153364#0 -152220 -152221 -153323#1 -152283 153358#0 153088 -152172 152970#0 153618#0 -153568 -152526 153485#0 153236#0 152562#0 -153018#0 -152583#1 153381#3 -153366#1 -153078 152441#2 -153381#5 152350 -152465#1 -153326#3 -153360#0 152582#0 152215 152565 -152548 152242 152589 152145 -152441#0 -153060 152548 -152577#1 153369#0 -152566#1 153533#2 -153578#1 -153578#0 -152340 -153372#3 -152465#0 152306#0 153485#2 -152239 152274 152339 -153356 153480#2 -152339 -152341 -153378#0 153022 -153378#2 152558#6 152575 -153367#0 -152577#2 152276 153381#0 152527 152577#4 -152492 153343#0 153381#5 153363#3 152990 152556 152248 152488 -153325#2 -152558#1 152587#3 -153361#2 -153485#2 152259 -153381#4 152547 152576 153323#0 -152578#1 152172 152209 -152618#1 -153358#1 153090#1 -152994#1 153370#1 -152244 -152564 -153345 -153349#3 -153020 152221 153060 152581#3 -153372#0 153578#2 152972#0 153345 -152579#1 -152568 -152563#0 152516#0 153359#0 153364#1 153368#1 -153372#4 153323#3 153323#4 -152219 152972#1 153577 153325#2 153355#2 153326#2 -152563#1 153354#0 152338 -152587#2 152441#1 153372#1 152994#0 153020 153365#4 153480#0 -153373 -152439 153350 -152173 -153480#0 153361#2 152583#0 152581#2 -153363#3 153373 -152970#0 153235 153358#1 -152441#2 152245 153095#1 -153355#3 152566#1 -153021 -152577#0 -152557#0 -152440#1 152247 153323#2 -153355#0 153096 152994#2 -152581#3 153480#6 152473 153568 153506 -153364#1 -153325#0 153016 152512#3 153326#3 -152970#1 -153371#1 153376 153238#1 152439 152239 -153368#1 153360#0 152306#1 -153480#1 152577#3 -152569 -153355#4 153367#0 -153370#0 153323#1 -152544 153238#2 152568 -153480#4 153372#4 152345#0 152334 -153351 -152243 153092 153378#0 -153343#0 -153352 152441#3 -153362#0 -153576 -153361#1 153343#3 -152440#0 -153326#4 153485#3 -152345#1 153578#0 -153013 153326#1 153628#1 -153359#0 152337 153349#2 153086#0 -153354#2 153017 -153480#5 -153347#0 153371#1 -153343#1 -153363#0 153196 -153366#0 153578#1 -152560 -152218 -152587#3 152345#1 152561 152578#1 153366#1 152173 -152241 152550 153325#1 -153349#4 153324 -153485#4 -152992 -153381#3 152208 153237 -153363#1 -153381#1 153239 153021 -153371#4 -153374#0 -153363#2 -152191 153352 152340 152581#1 -153347#1 152587#2 153541 -153578#2 153604 152993#0 -152565 -153378#1 153656 152994#1 153349#4 153365#0 152440#0 -153346 153371#2 -152473 152553 -152581#4 -152345#0 153354#1 153361#0 -152575 153091#0 153094#0 -153485#0 -152558#2 152216 152579#0 -152990 153359#1 152549 152584 -153348#2 -153491#0 -152488 152214 152273 152277 153056 -153381#0 152346#1 152512#2 153360#1 153480#5 -153480#3 -152338 153364#0 -153350 152518 -153326#0 -153056 153357#2 153367#1 -153376 153018#2 153618#1 153355#1 -152995 152465#0 -152562#1 152512#1 -152972#0 153547 152581#0 153533#3 -152561 153628#0 153236#1 -152583#0 -153577 -153349#0 152241 -153323#3 -153355#2 153351 -152551 -152547 153361#1 152543 -153326#2 -153324 152258 -153365#3 152219 152559 -152441#3 153095#0 -152972#2 152970#1 -152559 -152957 153378#2 -152581#5 152581#5 153533#0 -153485#1 -153370#1 153363#2 -153343#2 153480#1 -153361#0 -152245 -152579#0 -153485#3 152558#3 153343#2 152558#2 -152562#0 153505#0 153507 -153353 -152584 -153492 -152558#6 152564 153357#0 -153323#2 152577#2 153485#4 -153355#1 153219 -152527 -152550 -153323#0 -152242 -153359#1 153491#0 153014 152341 153378#1 153491#3 -153348#0 153375 -153362#1 153078 -153365#1 -153555 152465#1 152246 -153018#2 153357#1 -152581#1 153366#0 -153383#5 -152555 -153381#2 153090#0 153348#1 -153357#0 153019 153592 153363#0 153371#0 153505#1 152272 -153348#1 152519 -152993#1 -152441#1 -153012#0 -153357#1 152563#1 152566#0 -153022 152585#2 153018#1 153354#2 153349#3 153381#2 -153323#4 153087 -153368#0 153363#1"/>
    <!-- id="13" name="Beausoleil" -->