
<tazs> 
    <!-- id="33" name="gw33" -->
    <taz id="33" edges="152273 152274"/>
    <!-- id="45" name="gw45" -->
    <taz id="45" edges="153658 152556"/>
    <!-- id="34" name="gw34" -->
    <taz id="34" edges="-153348 -152549 152545 152194 153348 -153347 152549 153347 -152192 -152545"/>
    <!-- id="44" name="gw44" -->
    <taz id="44" edges="152576#1 -152576#1"/>
    <!-- id="43" name="gw43" -->
    <taz id="43" edges="-153438 153438"/>
    <!-- id="32" name="gw32" -->
    <taz id="32" edges="152527#0 152324#1"/>
    <!-- id="42" name="gw42" -->
    <taz id="42" edges="-153454#0 153454#0"/>
    <!-- id="41" name="gw41" -->
    <taz id="41" edges="153462 -153462"/>
    <!-- id="31" name="gw31" -->
    <taz id="31" edges="152194 153480 -152192 -153480"/>
    <!-- id="1" name="Monaco" -->
    <taz id="1" edges="-153398#1 152708#0 152867 152998#5 153448 152816#6 -152939#2 152762 153114 -153416#2 -152705 -152397#1 152788 -152998#6 153077 152585#1 152493#5 -152833#0 153179 152456#2 152488 -152818#1 -152466 -152785#0 153415#12 -152896#1 152946#1 152460#1 152158 -152493#2 -152818#0 152823#0 152826#1 152650#3 153008#0 -153401#1 153293#2 152399#2 152962#10 152138#4 152950#0 -152960 153495 -152700 153617 153254#1 153398#1 -152163 152675 152787#1 152940#1 -152684#2 -152872#0 152793 153227#4 -152217 -152825#3 153167 152834#1 -152816#5 152136#1 152708#2 152961#2 153554#1 -152805 152680 153119 -153561#1 153079 152649#1 152666#2 153142 153521#1 -152716 152812#1 153177 -152885#1 152901#2 152154#4 152313#0 152838#2 -152765 152674#1 -152962#7 153292 153300#0 152703#1 -153407#0 -152684#1 153377 -152608#5 152829#1 152890 152710#1 152608#4 -152793 -152592#2 153300#2 153519#1 -152584#4 -152615 152387#0 153199 152156#1 -152390 152715 152961#3 152807#1 152902#1 -152464 152659#0 152592#1 152834#5 -153398#4 152155#2 152619 152765 152651#2 152820#4 -152423 152389#1 152834#3 152616 152885#0 152334 152889#2 -152589#2 152382 153415#13 152962#4 -152235 -152814#2 152461#1 -152798#1 -153417#3 152272 152807#0 -152868 152947#0 152666#0 153440 -152821 153276#4 153551#2 -152704#0 -153382#1 152971#1 153276#3 -152814#3 152293 152301 -152879 152321 153417#2 -152900#0 -153415#16 152170 -152688 152870 -152681 152662#0 -152872#1 152155#0 153301#0 152900#0 -152651#2 -152834#3 -152939#4 -152678#0 153616 152940#2 153155#0 -152819#2 -152999 -153561#2 152968#0 152951 153116#1 -152834#6 152660#1 153148 -153415#15 152597#1 152785#1 153382#2 152421#1 152398#1 -152455 -152672#3 152319#4 152544 152707#0 -152703#2 -153441#2 153416#0 152299 153337#2 152794#1 153144 153306 -152818#2 153493#0 152492 152769#2 -152834#4 -153001 153297#1 -152962#0 152967#1 153275#0 153415#6 152820#3 -152678#4 152392 -152387#3 -152671#1 152976 -152385 153415#5 152659#1 152832#1 -152703#3 153227#2 152608#6 153446#4 152584#2 153128#2 153181#3 -152889#2 -152461#0 152604 -152706 152778 -152175#1 153415#16 -153640 152362 -153417#1 -153417#0 152962#5 153105#1 153407#3 -152834#5 152900#2 153228 -153382#2 152457 -152698 152876#3 -152940#2 -152586 152816#8 153108 152819#0 -152388 152383 -152825#2 153303#1 152834#6 153256#2 152939#0 153105#0 153120#0 -152874 153256#4 152650#1 152814#4 -153561#4 152821 -152581#0 152320 152941#2 153162 153131 153197#1 -152998#8 153657 -152171#0 153597 153337#3 153256#3 153160#2 153402 152703#3 -152943#2 -152900#1 -152941#0 152872#5 -152989#0 -152389#0 -152608#3 153415#15 -152493#5 -152869 153551#1 -152607#1 153640 152666#3 -152834#0 152882#1 153120#1 152825#1 152271 -152811 153618#0 152838#6 152776 -152650#1 -152507 153124#1 152877#0 153513#2 153312 -153561#0 -153333#1 152822 152809 -152769#3 -152656#0 -152384#0 153130#1 153654 152589#3 -152537#0 -152141 152398#0 153641 153143#0 -152656#3 153115 153226#0 153222#3 -152603 -153331#1 152159#1 152941#1 153234 153408#1 152876#5 153143#1 153623 152897#2 152306 153159 152589#1 152816#2 -153398#0 -152939#0 153138 152784 152350 153229#1 153299#2 153406#1 -152914#8 152387#2 152939#2 152595 153230#0 153250#1 -152940#1 153446#5 152695#2 153082 152825#0 -152231 152718 152608#9 -152617#1 -152651#3 153289#2 -152679#3 152609 -152472 152882#2 152830 153154#2 -153382#0 152460#3 -152832#1 153260#0 152985 153253#0 -153415#9 -152655 152799#0 152288 152607#2 -152875#0 152607#1 152781 -153401#0 153381 152608#7 152826#0 152777#0 -152710#1 152805 152175#0 -152220 153227#1 152656#0 152516 153078 153154#1 153589 152515#1 153233#0 -152669#3 153400#0 -152695#2 153160#0 -152362 -152962#10 -152387#0 152313#2 153275#1 152875#3 153253#1 -152399#4 -152803 153415#0 152584#4 152814#5 153220 153376#11 152651#3 -152135 -152666#5 152970 152888#0 152832#2 -152656#2 152140 152537#0 -153555 -152608#2 -152589#1 -152166#0 -153400#0 152222 153001 152949 152785#0 153284 -152808 -153415#3 152690#0 152171#1 153310#2 152459#1 152816#7 152998#2 -152544 -152703#1 -152584#3 -152687#3 -152834#2 -153406#1 153554#2 -152778 153229#0 152838#4 -152942 -152892 152470 153204#1 152794#0 152860 152712 152672#2 152500 153283#0 152676#0 153382#3 152654#0 -152901#1 -152962#2 153205 153276#0 152989#0 -152769#1 -152884 -152786#1 -152819#1 152313#3 -152790 152235 152160#3 -153407#2 -152989#2 152312 152389#0 -152990 -152221 -152838#0 153223#0 -153560 -152674#2 -152607#0 -152679#0 152540#0 152678#1 152459#0 -152789#2 153556#3 152782 152160#0 -152872#4 -152230 152671#1 153163#1 152424#0 152512 -152306 152654#1 152465#1 152816#5 152998#3 153155#1 153277 152789#2 -152662#1 152151 152838#5 152690#2 153141 152872#1 -153406#0 153290#2 153158 153655 -152695#1 153152#0 -152612 -152224 -153010#6 152969 -152515#1 -152392 152585#0 152319#2 152947#1 153227#5 153322#1 152968#1 153299#0 -152890 -152701 -152777#2 -152619 152795 -152718 152808 153415#9 -152398#0 -152649#0 -152399#3 -153556#1 152536#4 -152695#0 152613#0 -152399#2 -152536#4 152886#1 -152838#3 -152713#0 -152301 -152656#4 152670#0 152769#3 152224 -152649#2 152818#5 152881#0 153547#1 -152971#1 152716 152612 153651#1 152365 152160#4 -152888#0 153222#4 -152807#1 152780 -153382#3 -152670#2 -153478#0 -152885#0 152221 153482#7 -152453 152168 152589#2 153150 152786#0 153113 152938 152973#4 152962#6 -153376#10 -152998#5 -152672#4 152617#2 153554#0 -152820#1 153339 152803 153628 -152669#9 152838#3 -152768#1 -152610 -152651#1 153118 153225 -152584#1 152701 153550#1 153415#1 -152947#2 -152971#3 152396 -152708#1 152700 152833#0 152880 -153415#4 -152678#1 152942 152649#2 153550#2 -152687#2 152611 152403#1 -152666#6 -152950#1 152661 152493#0 -152829#0 152282 -152672#2 153269 152820#2 152608#2 -152699 152876#2 152136#0 152267 152161#4 -152292 153647 152825#2 152296 153439 153415#8 153299#1 153415#14 -152998#2 153124#0 153298#1 152998#4 153233#2 152164#1 152874 -152950#0 152814#2 -152537#1 152536#6 152650#2 153255#0 153000 153556#0 -152875#3 -152666#0 152977#4 153420 -152207 -152768#0 152313#1 152943#2 153301#1 -153415#7 152499 152618 153219#0 153145#2 -152819#3 -152968#1 -153331#2 152423 -152947#1 -152651#4 152354#1 -152659#1 153232#0 153102 152945#0 152292 152399#0 152161#3 152770 153290#0 152876#1 152819#2 -153415#13 -152774 -153439 152455 -152825#1 152319#1 153303#0 152971#2 -153416#0 -152382 -152654#0 153140 152587#2 153168 153598#0 152425 153125 152678#4 -152866 152403#2 -152493#0 -152653 -152652#2 152686 153281#0 152536#7 -152660#0 152291 153273 152673 -152690#2 153558 152971#0 152591 -152797#1 -152710#0 -152816#10 -153402 152615 153166 152355#0 153217 -152459#2 153197#0 -152717 153331#1 -153441#0 153164 152679#1 152157#1 153249 152977#3 -152814#5 153382#0 152657 152871 -153415#8 153103 152945#1 153276#2 153547#0 152834#2 153551#0 -153376#11 -152882#0 -152799#1 -153400#3 153180 152872#0 -152794#1 -152707#0 -152675 152676#1 152864 -152616 152889#1 153651#0 153135 153550#0 152989#1 -152662#0 152172 -152816#2 -153415#5 153173#0 -152860 153200 152138#7 -153275#2 152946#2 152798#1 152460#2 153285#1 153117 -152656#1 152586 152875#2 -152679#5 -152670#0 -153642 -152785#1 153304#1 153561#4 153165 153416#1 152704#1 -152696#1 152991 153252 153251#0 152135 -152827#0 -152763 -152537#4 153230#2 153513#1 152801 153515#0 -152669#4 152456#3 -152832#0 -152608#0 152815 153515#2 152798#0 153591 -152164#1 153281#1 -152820#3 153522 -152985 153593 -153398#2 152617#1 -152878 152656#3 152891 153128#1 153132 -152669#2 152816#9 153235 153156#0 -152971#0 -153381 152156#0 152297 -152807#0 -152818#3 152708#3 152818#0 -152818#4 152797#1 152688 153294#1 -152820#0 -152823#2 153151 152294 153552 152818#1 -152584#2 -152387#1 -152810 153331#0 -152585#1 -152685 152900#1 153087 -152617#0 153232#2 153592 -152882#2 -152962#1 -152826#0 -152707#1 -153562 152225 -153339 -152365 -153407#3 152783 -152711#2 152800 152878 152666#4 152231 -152949 -152898 152898 152777#5 152873 152669#9 -152669#6 152662#1 -152941#5 152465#0 152703#4 152354#2 152354#4 152536#0 152536#5 153400#3 -152384#1 152709#0 152977#1 152511#0 -152877#1 153174 152161#0 153160#1 152464 152157#0 -153552 -152863 153417#1 -152536#5 152399#3 153401#1 152466 152390 -152801 153519#0 -152614 152684#2 153153 152687#2 152669#6 -153651#0 152651#4 -152134#0 -152606 -152515#0 152713#0 152706 153520 152217 152791#2 -152651#0 152816#3 -152133 -153550#0 -153376#12 -152348#0 153121 -153415#1 152650#0 152819#3 -153551#0 153123 152990 153415#11 153085 152902#0 -152690#1 -152703#0 153407#1 -152788 -152887 -152889#1 152961#1 153407#0 -152713#1 -152871 152838#0 152651#0 152679#4 152650#6 -152973#5 152666#5 152888#1 -152659#0 152937 152769#1 152463 -152998#3 152581#0 152859 152403#3 152690#1 153222#1 153222#0 -152889#0 -152882#1 -152829#1 153642 152879 152584#0 -152604 153013#1 -152941#2 -152613#0 -152591 -152799#0 -152666#3 152777#3 153302 153615 -152764 -152816#7 152397#1 152660#0 153109#0 -152814#4 152540#1 153256#0 -152334 152872#3 152941#4 152664 -152962#4 152669#8 152584#3 -152548 -153416#1 -152711#0 -152875#1 152606 152459#2 -152299 152290 152772 153086 152820#1 152796 153181#0 152767#0 -152651#5 -152683 -152870 153611#1 153408#0 -152285 -152783 -152798#0 -152941#1 -153337#4 152669#10 -152468#1 -152493#1 153291 -152826#1 152828 152973#5 153247 -152661 152652#2 152802 152698 152493#1 152678#2 -153337#1 -152652#0 153333#1 -152838#4 -152812#0 153181#2 -152962#5 -153415#14 -152781 153116#0 -152649#1 -152786#0 153561#1 152156#2 152653 152578 -152659#2 152814#3 153157 153295 152154#3 -152817 -152674#1 -152355#0 -152830 152230 -152888#1 153232#3 152816#11 152651#5 152669#1 152779 -152971#2 153152#1 152133 152511#1 -153013#1 152903#1 -152225 153513#0 -152968#0 -152862 -152171#1 -152902#1 152617#0 -152617#2 153232#1 152454 152763 152283 -152670#1 152767#1 -152470 -152293 -152894#1 153171 152904#0 152669#5 -152789#1 152364#3 152424#1 153301#2 153446#3 152387#3 153417#0 153310#0 -153398#3 152364#2 153322#0 -152650#3 153514 -152348#1 153296 152819#1 -152902#0 152804 152164#0 152385 -152669#5 153013#0 152789#0 152194 -152669#8 152683 -152819#0 -152608#8 152298#0-AddedOffRampEdge 152421#0 152695#0 152669#11 152883 152537#4 -152820#4 152298#1 152713#1 152681 152833#2 152769#0 -153446#3 -153556#3 -152398#1 153554#3 152161#1 -152877#0 153006 -152708#2 -152962#3 152154#5 153555 -152708#0 -152816#8 -152468#0 -152812#1 -152784 152287 -152399#1 153133 153652 152155#1 152666#1 153288 152220 153561#2 153618#1 153101#0 -153331#0 152166#1 152403#0 -152381 -152696#0 153100#0 -152967#0 152799#1 152587#1 -152816#1 -152967#1 -153333#0 152161#2 -152941#4 152404 -152991 -152465#0 -152792 152650#5 -152820#2 152707#1 153227#3 -152777#3 152872#4 -152791#3 -152769#2 -153337#2 153523 153588 152176 152592#2 -152175#0 -153651#1 153519#4 152668 -152660#1 -152168 -152998#4 -153382#4 153250#0 152398#2 152834#0 152649#0 152669#2 153398#4 152881#1 -152672#0 152679#5 152876#0 152703#5 153276#1 152885#2 -152838#1 153246 -153550#2 152896#0 -152673 152827#0 -152789#0 -152791#1 -152386 153608 153337#4 -153650 152381 152608#8 153251#1 -152678#2 153401#0 152901#1 -152679#1 -152833#2 152789#1 153519#3 -152665 -152886#0 152823#2 152669#7 153270 152699 152768#1 152962#1 153181#1 153206 -152584#0 -153408#2 153648 152605 153289#1 -152589#3 152703#2 153331#2 -153556#0 152877#2 152679#3 -152597#1 152670#1 153310#1 -152690#0 152865 152711#1 153203 -153556#2 -152815 152961#5 153218#1 153519#2 -153446#2 152827#1 153272#0 152138#0 152656#1 -152823#1 153256#1 152773 152764 152998#7 -152424#1 -152713#3 -152814#0 152939#4 -152867 153207 152652#0 -152900#2 152674#2 -152807#2 152818#2 152507 -152474#0 153598#1 153382#4 152171#0 152939#1 152816#0 153154#0 153515#1 153287 -152166#1 -153652 152812#0 -152712 -153331#3 152943#1 152998#6 -153415#6 -152465#1 152811 152669#3 -152777#4 153275#2 152829#0 -152540#1 152159#0 152537#2 -152668 -153408#1 152138#1 152834#4 -152192 152989#2 -153551#2 153298#2 153254#2 -153420 152704#0 153417#3 153553 -152989#1 -152704#1 152422 153567#0 -153415#10 -152816#9 -152827#1 152163 152687#3 153415#3 152207 -152300 -153407#1 -152227 -152609 -152832#2 152943#4 -152872#2 -152608#9 153294#0 152399#1 -152401 -152883 153226#2 -152708#3 -153443#2 153445 -152666#1 153587 152984#0 152364#1 153441#0 152775 152813 152310 152603 152717 -152711#1 152807#2 152943#3 153562 152685 -152936 152387#1 -152825#0 152892 -153275#0 152138#6 152984#2 152493#2 152300 -152136#1 153169 152665 -152802 152962#3 -152650#6 -152291 152468#0 152786#1 153250#2 -152671#0 -152872#3 152768#0 -152611 -152816#6 152354#3 153112 -152664 153304#0 -152136#0 152651#1 152714 -153551#1 152820#0 152608#5 -153493#0 152493#3 152474#1 152672#0 152614 153161 153561#3 -152309 153272#1 -152775 153653 -152838#5 -152608#1 -152834#1 152458#1 152948 -152222 152145 152388 -152973#4 152663 -152650#5 -152420 153271 -152592#1 152319#3 -152667 153129 -152170 -152608#6 152666#6 152266 152897#0 153111 -152592#0 -152791#0 152777#2 -152607#2 -152969 -152823#0 152154#1 -152703#5 152679#2 152139 152462 -152770 152472 -152482 152831 153400#2 153251#2 153382#5 153010#7 153231 152940#0 -152652#1 -152140 -152777#5 152962#2 152791#4 -152608#4 -153641 -152816#4 -152816#11 -152901#0 152669#4 152884 -152865 152468#1 153290#1 152984#3 -152663 152138#2 -153415#0 152939#3 -152873 153139 152536#2 152816#1 152154#2 152659#2 152818#4 -152422 -152814#1 152672#3 -153561#3 152896#1 153498#3 153301#3 152309 -152320 152810 -152424#0 -153008#0 153128#0 -152536#6 152285 -152782 152655 152453 -153550#1 -152939#3 153398#3 153590 152458#0 -152399#0 152670#2 152868 153398#2 152162#1 -153337#3 -152669#7 153101#1 -152290 152656#4 -152804 152318 152962#8 -152769#0 -152457 152777#4 -152389#1 152160#1 152941#5 -152595 153382#1 -152537#6 -152676#1 152610 153109#2 152505 153415#4 152791#3 -152791#2 -152474#1 152154#0 -152310 153398#0 153333#0 -152947#0 152667 -152771 -152943#1 152589#0 152648 -152973#0 -152678#3 -152398#2 152596 -153415#11 -152686 -152794#0 152461#0 153300#1 -152833#1 152460#0 152138#5 153656 152760 -152350 -152493#3 152975 153441#2 -152650#2 -152687#0 -152715 152537#6 -152800 -152777#0 -152459#0 152833#1 152705 -152672#1 153227#6 152384#0 152696#1 153173#1 -152809 -152943#0 153293#0 152872#2 152943#0 -152657 152812#2 -152679#2 152709#1 153307 153216 153219#1 152791#0 152711#2 -153006 -152462 152977#2 153609 152999 -152776 152971#3 153556#2 152818#3 -152709#0 -153403 152678#3 -152806 152652#1 152838#1 152787#2 152348#0 152713#2 -152703#4 -152943#3 153222#2 152875#1 152157#2 152160#5 153293#1 152887 152351 153181#4 153218#0 -152608#7 -153010#7 152876#4 152886#0 -152650#4 152608#0 152869 152656#2 152944 153376#10 153274 -153400#2 153010#6 152679#0 152761 152399#4 153178 152901#0 -152459#1 -152779 152138#3 152474#0 153331#3 -153013#0 -152891 152456#1 152894#1 -152886#1 152967#0 -152816#3 -152540#0 -153558 152456#4 153286 -152962#8 -152903#1 -152537#2 -152897#0 152825#3 -152676#0 -152885#2 152608#1 -152669#10 153145#0 -153482#7 -152838#2 153415#10 152671#0 153156#1 152866 153107 -152816#0 -153415#12 -152880 152984#4 153254#0 -152536#7 152984#1 152537#1 -152454 -153400#1 -152812#2 -152605 -152176 -153275#1 152548 -152859 153650 -153553 153283#1 152708#1 152816#10 153223#1 152355#1 -152536#2 153415#7 -152650#0 152962#7 152420 152861 153260#1 153556#1 153255#1 152823#1 -152894#0 153163#0 152936 152672#1 153298#0 152816#4 153619 -152962#6 -152536#0 -152680 153403 -152294 152713#3 153282 153400#1 152608#3 -152618 -152271 152791#1 153611#0 153407#2 -152940#0 152298#0 -152679#4 152584#1 153297#0 152875#0 153145#1 152678#0 152787#0 152160#2 -152713#2 152672#4 153083 -152666#2 152364#0 152947#2 -152998#7 -152861 152175#1 -152397#2 153172 152695#1 152348#1 152950#1 152384#1 152703#0 152397#2 -152666#4 -152760 -153417#2 -152939#1 152401 152998#8 -152780 152885#1 -152938 -152589#0 153136 -152795 -152897#1 -152875#2 -152648 153308 152961#4 -153446#4 -152772 152515#0 153226#3 152877#1 152684#1 153408#2 -152951 -152813 152482 153416#2 -152791#4 -153408#0 -152762 152774 152862 152814#1 -152896#0 -152714 -152796 -152488 153226#1 -152838#6 153337#1 152386 152650#4 153289#0 -152461#1 153109#1 -152669#1 -152387#2 -152164#0 -152585#0 -152904#0 -152396"/>
    <!-- id="14" name="Roquebrune-Cap-Martin" -->
    <taz id="14" edges="152996#1 153630#0 -152247 -153380#0 -152336 152545 152346#1 -153349#1 152529 152556 153347 153507#0 153328#2 -152173 -152560#6 -153023 152583#0 153383#4 153365#2 153328#4 152174 152346#0 -152564#0 153325#1 -152346#1 -153016 152585#1 -153351#1 -153328#2 153374#3 -153325#1 -153361#1 -152475 153374#2 152518#0 -153375 152443#0 -153358 -152583#4 -153482#2 152246 153357#4 153580#1 -153373#4 152579#3 -153487#1 -153361#0 152581#0 -152221 152583#3 -153487#3 -153328#0 153367#4 153349#0 152467#1 153345#0 -153493#0 152560#5 -152242 -153487#4 153345#1 153088#0 -152560#0 -153351#0 -152245 153359#1 -153357#4 -152583#0 -153328#1 152584#0 -152240 -153374#1 -152562 -153369#1 152996#2 -153482#0 -153578 -152577 152209 152514#4 153095 -152591 153016 -152583#3 152560#2 152974#2 153359#0 -152222 -152560#2 153487#1 153350#0 153482#6 -152571 -153357#0 153096#1 -152579#4 153353 152210 -153326 -153549 -153325#3 153535#1 152554 152307#1 -153570 -152217 152585#0 -153014#0 -153365#1 -152570 -152568#1 -152246 -153347 153092#0 153351#4 -153328#3 153487#3 -152443#3 -153557 153325#0 -153373#2 -153357#3 -152346#0 153058 -152579#0 -153351#2 152349 152620#1 153238#0 152146 -153372#1 153374#1 -152442#0 -153383#5 153507#1 152520 153023 -153325#0 -153350#0 153380#0 152972#0 153328#1 -153366#0 153201 -153350#2 -153061#1 153362#0 -152285 -153580#0 -152338 -153368#1 -152249 152974#0 -152494 153377 153355 152547 153240#1 153357#0 153482#5 -153058 152992 153582 152216 -153345#0 152221 -152341 152579#4 153482#7 152589#2 153371#1 -152959 153351#3 153557 152173 152553 -153370#0 152273 152972#1 153351#1 -152284 153367#3 -153371#0 -153376#0 -153487#0 152308 153328#3 152242 153221 -153373#1 -152559#1 153097#1 152578 -153359#1 152285 153383#3 153620#1 -152583#1 -152589#2 -152308 153093#0 152570 152522 152278 153088#1 153080 -153356#0 153620#0 153357#3 152583#5 -152244 -153487#2 153367#0 153510 -153359#0 -153371#1 153375 -153351#4 -152997 -153363#0 -153352 153360#1 153373#1 -152443#2 -152974#2 153090 -152529 153374#4 152443#3 -152565#0 -153383#4 153022 152565#0 -152566 -152581#1 -153349#2 153371#0 -152549 152339 -152442#1 -153493#3 -152557 153383#1 153327#1 152518#1 152568#1 -153370#1 153092#1 152338 -153365#3 -153363#1 -153385#5 153578 -152580#1 -152490 -153360#1 -152583#5 152514#2 153098 -153364#1 -153353 -152146 153594 -152972#1 -153351#3 -152441 -153348 152567 153238#1 153349#1 -153327#0 -153327#1 153580#2 153365#3 153629 153241 153237 152560#3 153376#0 152559#1 -152342 153535#3 -152553 153493#0 153535#0 -152216 152259 153326 153482#4 152277 152561 -152974#0 -153482#5 152564#1 152194 153383#2 -152339 -153369#0 -152219 152579#2 153373#4 153363#1 -152568#0 152275 -153374#4 153366#1 153580#0 153487#2 152523 -152560#3 152340 152514#1 153373#0 153354 -153383#2 152551 152475 152587#2 -153020#2 -152995#1 -152340 152974#1 152240 153089 152247 153493#3 -153357#1 153658 -152974#1 152591 -152586 -153362#0 152565#1 -153366#1 -152558 153014#1 152220 152995#1 153383#5 152560#1 -152550 153357#1 152351 153482#0 152341 153099 153327#2 153579 -153582 152519 153372#0 152587#1 152997 -153494 -153356#2 153020#0 -153380#1 -153380#2 -153365#2 152546 -152579#2 -152528 -152560#5 153345#2 -153580#1 -152581#0 153024 152219 153356#0 153018 -152996#0 -153482#4 -152579#3 153380#1 -153363#2 153348 152260 -153062 152443#1 153487#0 153363#0 -153356#1 -152243 -152564#1 152442#0 -153020#1 153350#1 153373#3 -153355 153369#1 -153360#0 152995#0 152337 -152620#1 153239 153356#2 -153080 153543 -152563 -153482#1 -152992 153094 153096#0 153482#2 -153020#0 153367#1 -153367#3 -153482#7 152586 152442#1 -153354 153325#3 153325#4 -152579#1 152550 153370#1 153509 153570 -152214 152347#1 -153350#1 -153021 152589#3 152244 153349#2 152521 -152996#1 -152584#0 -153579 -152972#0 -153327#2 -153017 -152589#3 152443#2 152528 152558 153362#1 -153482#6 153596 152579#1 -152248 -153325#4 -152545 152342 152441 153093#1 -152547 -153024 153020#1 153357#2 153198 153548 -152565#1 152583#1 -152337 152581#1 153017 -153022 152490 152568#0 -153373#3 153487#4 153370#0 -153383#1 -153374#2 153202 -152349 153373#2 -152585#1 153368#0 -153372#0 152467#0 152514#3 -153328#4 152549 152566 153062 153351#0 -152554 153482#1 152243 -153548 153368#1 -152561 -153383#3 153383#0 152552 -153018 152560#6 -152443#1 -152443#0 153021 -152552 153351#2 153482#3 -153367#4 153365#1 -152567 152249 153494 -153378 -153345#2 152215 152494 -152995#0 -152583#2 152284 152555 -153374#0 -153345#1 -152220 153361#0 -152174 152579#0 -152994 152571 152583#4 153091 153097#0 -152467#0 153364#0 -153349#0 152577 153372#1 -153368#0 153360#0 -153345#3 152563 153364#1 153606 153535#2 153508 -152192 153378 -153482#3 152335 -153383#0 153240#2 153359#2 153361#1 -152467#1 152564#0 -153367#1 153366#0 152276 -153357#2 153345#3 -153019 -153373#0 -153367#0 152583#2 -152559#0 153363#2 152307#0 153549 -153359#2 -153365#0 -153580#2 -153015 152274 152562 153020#2 -152166#0 152222 153365#0 153369#0 152248 153630#1 153352 -153364#0 153325#2 152996#0 153380#2 -152546 -153325#2 153350#2 152217 153019 -152560#1 152580#1 -152585#0 -153374#3 153356#1 -152555"/>
    <!-- id="13" name="Beausoleil" -->