
<tazs> 
    <!-- id="33" name="gw33" -->
    <taz id="33" edges="152292 152293"/>
    <!-- id="45" name="gw45" -->
    <taz id="45" edges="153679 152575"/>
    <!-- id="34" name="gw34" -->
    <taz id="34" edges="153368 152568 -153369 153369 -152211 -153368 -152564 152213 152564 -152568"/>
    <!-- id="44" name="gw44" -->
    <taz id="44" edges="-152595#1 152595#1"/>
    <!-- id="43" name="gw43" -->
    <taz id="43" edges="-153459 153459"/>
    <!-- id="32" name="gw32" -->
    <taz id="32" edges="152343#1 152546#0"/>
    <!-- id="42" name="gw42" -->
    <taz id="42" edges="-153475#0 153475#0"/>
    <!-- id="41" name="gw41" -->
    <taz id="41" edges="-153483 153483"/>
    <!-- id="31" name="gw31" -->
    <taz id="31" edges="-152211 152213 -153501 153501"/>
    <!-- id="1" name="Monaco" -->
    <taz id="1" edges="153672#1 152406#0 -152443#1 153673 153291 -152831#1 153192 153137#0 -152983#6 153012 153331#0 153190 -152691#1 152714#2 -152629 152173#0 152844#2 152723#1 152728#0 -152439 -153441 -152699 -152837#3 152881 153311#1 -153571#2 -152816#1 153630 -152959#0 -153577#1 152383#0 152409 153636 152177 152403#0 152842#1 -152807 153006 152889 -153436#11 -152983#0 -152817#1 -152853#0 152723#0 153343#1 -153427#0 -152155#0 -152891#2 152671#2 -152971#1 152697#3 -152688#10 153540#4 -152688#7 -153582#1 153277#1 152555#7 152720 152820 153156 153141#1 -152418#2 152627#1 153421#1 152812 152728#1 153292 152627#8 152157#7 -152913#1 152904#0 152158 -153436#4 -152983#7 -152959#2 -153436#0 -152636#2 -152727#0 152367#0 153429#1 152697#2 -152733 152911 -152507 -152611#0 -152811 152915#0 152626#2 152636#1 152960#1 -152695#0 153421#2 -152679#1 -153019#4 -152669#1 152894#1 153272#0 153200 153005#3 152157#4 152733 152703#2 153268 152627#9 -152406#3 152512#2 152189 152904#2 152899 -152667 152637 152891#5 -152784 152832 153272#1 153588#0 153166#2 152489 153271#2 -153421#3 153164#0 152338#2 153298 -152623 152383#1 152970 152518 153573 -152415 153295 -152983#5 152819 152534#1 -153436#5 -152800 153462#0 152962#5 152182 -152844#3 -152603#3 153436#14 -152211 152340 -152805#0 153313 153541 153178 152674 -152714#1 -152802 152794 153027 -152845#0 -152155#1 153149#1 153227 153272#2 152190#1 153194#0 152331 153398 153248#6 152530#1 -152848#0 153428#0 -152921#1 152338#3 152920#1 152493#1 152910 -152833#0 -152796#2 -152992#3 -152916#0 153150 152157#0 152961#4 -152697#0 152983#4 152422#3 152507 153422#0 152442 152180#0 152822 152418#2 153218#1 152815 -152853#1 152309 153199 152857#0 153437#2 153005#4 152679#0 152487#1 -152835#3 152817#1 152891#2 -152921#0 -152857#6 152691#0 152373#4 -152608#0 -152729#1 152686 -152907#1 -152628 152475#1 152850 152732#3 153297#3 -152474 152555#5 -152489 152478#1 152420 -152367#0 152847 -152703#2 153436#11 152685#5 152828 152835#2 152422#1 152722#2 152328 -152709#1 152791 -152916#1 -153019#7 152853#3 152175#2 152404 -152908#0 -153428#3 152157#3 -152722#0 153397#10 -153582#3 153358#3 -152190#1 153311#0 152616#1 -153296#1 -152153#0 152213 152890 152180#2 -152385 -152685#4 152796#3 -152901#1 -152726#0 152964#2 153121#0 152971#1 -152920#1 -152697#2 -152964#2 152481 152476 152332#0 -152697#1 -152730#0 152704 -152904#2 152810#4 153304#0 -152972 -153421#1 152786#1 -153436#8 -152719 -152678#1 -152853#2 152964#4 153320#2 153469 152627#6 153428#1 153240#0 153165 -152688#8 152962#4 153159 153267 -153582#2 152526 152964#1 -152845#1 152706#3 153614 153202#0 152691#1 152998#4 -152689#2 152386 -152968#2 -153467#2 152174#1 153461 152678#1 -152693#1 -152241 152853#6 152688#3 -153436#6 -152159 -152409 -152674 152475#4 -152555#6 -152325 152685#2 152401 152816#1 -152668#1 152998#3 -152720 -152627#7 152959#3 -153429#2 152853#5 153274#0 153661 152853#1 153010#2 152804#1 152672 152837#2 -152891#4 152634 152556#1 -152638 -152981 152512#3 -152685#1 -152491 -152907#0 152792 152851#2 -152688#4 152638 152802 -152989#1 -152956 152682 152983#5 153195 153277#3 152907#1 152963 152833#3 153315#1 152826#1 152983#8 -152691#4 -152671#2 -152839#1 -152910 152627#0 -152893 152629 152714#1 153358#2 152983#7 152833#1 152959#0 152968#0 152796#0 153011 -153397#10 152846#0 -153034#1 153281#1 152731 152833#2 152670#2 -153354#1 -152888 152671#0 152555#0 -152992#0 -153436#9 -153403#0 153172 -152185#1 153185 152968#1 153575#1 153582#4 152921#0 152909 152906 -153358#1 -152799 152779 153574 152403#1 -152857#5 152915#1 -153438#0 153360 -152627#8 152901#1 152406#1 153314#1 -152478#2 -152726#1 152796#4 153273 -152311 -152556#0 153252 152972 152472 153427#1 -152901#0 -152703#1 152689#0 152920#2 -152627#0 152795 153329 -152406#0 152961#3 -153397#11 152983#10 153248#4 -152891#3 -152608#3 153333 -152669#3 152415 153672#0 153149#0 153247#2 -152636#0 152784 152891#3 152603#3 153536#1 152709#0 152917 152732#0 152994#5 152417#2 153354#1 152983#3 -152959#1 152304 -152853#5 153397#11 -152844#1 -152630 153572#1 -153421#0 -152899 153639#0 152961#1 -153419#2 152681#0 153275#2 152781 152669#6 152191 152823 -152994#4 152998#2 -152796#3 -152194#1 152384 152894#3 -152909 153238 -152722#3 152838#0 -153010#0 152722#4 152839#1 152830 152895#1 152418#3 152383#3 153098 152921#1 -152891#0 152668#2 153176#1 153181#2 152519 153421#0 152992#2 152837#1 -152416#2 152479#2 153166#1 153247#1 152479#1 153176#0 152831#0 -152894#3 152807 153019#8 -153428#2 152997 -153429#1 153619#0 -152614 153248#2 -152992#2 152718 152370 153146 -152833#2 -152669#6 153575#2 152688#10 152732#1 152695#1 153137#1 -152473 -153428#0 -153403#1 152898 152695#0 152908#2 152623 -152555#4 152627#5 152422#0 -152671#0 -152636#1 152685#3 -152239 152786#0 -152848#1 -153438#1 152901#2 -152962#5 152799 153309 -152851#2 152692 -152675#1 152852#0 152155#1 153164#1 -153436#1 152603#0 152685#1 153540#0 152668#1 -153422#0 152668#0 -152880 152964#3 152788#2 152895#4 152688#5 152837#4 152967#2 152908#1 153321#2 152627#3 152835#6 153256 153423 -152970 152996 153296#2 153296#0 -152668#2 153637 152900#0 -152526 152611#1 152982#2 153145#1 152608#2 153020 152821 -152842#1 152254 -152911 -152832 -152842#2 -153438#2 153544 -152611#2 153419#4 -152408#1 152556#4 -153572#0 153402 152512#1 152670#1 -152835#8 153250#0 153310#1 -152990 152965 -152725 153276#0 153540#3 152907#0 152383#2 152373#1 152174#0 -152787#0 -152670#4 152316 153318#1 -152669#5 153270 152841 152880 -152688#3 152179#3 -153579 -152555#0 -152672 152998#1 153321#1 -152915#0 152920#0 153182 -152679#0 152736 152803 152603#1 -152968#0 153162 152603#4 -152702 153317 152838#1 -152839#0 -152627#1 -152695#1 152670#3 -152698#5 152606#2 152835#3 -152637 -153429#0 153437#1 152250 152610 152891#1 153542#1 152988#1 153145#0 -152732#1 152669#5 -153296#0 -153436#3 -152983#2 -153034#0 -152908#1 -153499#0 -152822 153099 153302#1 -152790 153224 -153572#2 -152722#5 -152833#3 -152897 152835#10 -152555#5 -152556#2 -152892 152317#0 152402 153202#4 152675#3 152484#1 -152812 -152842#0 153122#1 153678 153632#0 152690#1 152555#4 153184#0 -152310 152691#3 152702 152606#1 152829 -152846#1 -152697#3 153218#0 152608#3 152808#1 152839#0 152959#1 -152682 152311 -153019#2 -152709#0 152173#2 -152894#2 152667 -152882 -152983#10 -152971#2 152194#0 153221 152673#1 -152411 -153583 -152339 152179#5 153305 152684 153138 153175#0 -152838#2 -152904#1 -152805#1 152187 -152669#2 152556#2 152194#1 -152851#0 153428#2 153247#3 -153577#2 -152831#0 -152407 152691#2 -152838#0 152994#4 153271#1 -152913#0 -152887 -153011 -152608#2 -152367#1 153352#1 153319#1 -152844#2 153253#3 152896#0 153577#2 153644 152700 153576 153126#0 -152857#2 152479#0 152605 152857#3 -152796#0 -153352#2 -153582#0 153436#9 -152857#1 153243#1 -152625 -152829 -153576 152835#9 -152834 -152964#0 -152374#0 153021 152597 153243#3 -152727#2 152190#0 153331#2 -152555#7 152813#0 -152406#1 -153010#1 -152958 -152194#0 -152320 152992#1 153171 153540#1 153297#2 -152731 152982#4 152369 153297#4 152416#1 153243#4 -152185#0 -152626#0 152320 -152833#1 -152626#1 -152706#3 152195 -152624 152902 -152815 152845#1 -152783 -152788#1 -152685#6 152903 -153358#3 152834 153322#3 -153296#2 152895#3 -152690#1 152958 152722#0 152905#0 153241 153251#2 152385 152916#0 -152478#1 153253#0 -152603#4 152838#2 153130#1 -152417#0 152885 152857#1 -152735 -152788#0 152675#2 -152487#1 152680 152181#1 152627#2 -152493#1 -152632#0 152969 -153577#3 -152905#1 152796#5 152332#3 152477#1 -152694 -152810#4 -152685#3 -152728#0 153579 -152318 153467#4 -153436#13 -152894#0 153358#1 152555#6 152722#1 152183#0 -153671 152524 -152240 -152962#2 152893 152737 152608#0 152179#1 -152813#1 152833#4 153675 152487#0 152416#0 -152416#1 -152983#1 152173#4 152824 152846#1 152896#2 152628 153582#2 153297#0 -152668#0 153124 153130#0 -152889 153177#0 -152443#0 152338#4 153174 -152923#0 152317#1 152669#4 152904#1 -152734 -152685#5 152443#0 153609 152688#4 152675#4 153668 -153582#4 -152688#6 153276#1 153671 -152603#2 -152404 152957 152240 -152837#1 153536#0 -152152 152688#9 -153574 -152563 153187 -153437#0 153186 152604#0 152735 152178#0 152633 153403#4 153133 153237 153100 153582#3 152226 152332#2 -152857#4 152484#0 152381 153302#0 153436#8 153429#0 153618 152422#2 152630 -152898 152478#0 -152690#0 153663 -152810#2 -152919#1 153314#0 -153419#4 153034#0 -152691#3 152878 153314#2 152810#0 -152685#0 -152852#0 152922#1 152839#3 153019#3 153577#0 -152416#0 153019#7 -152839#4 -152714#0 153328 -152813#0 153571#2 -152840 153132 152727#0 152698#4 152842#2 153543 -152626#2 -152857#0 153306#1 152439 -153419#0 152411 -152964#3 152897 -152820 -152705 152848#1 -153573 -152797 152307 -152304 152844#1 153438#2 -152480#1 -152704 -153020 152894#0 153403#1 -152555#2 -152534#0 -152825 152788#0 153254#0 -152988#1 -152290 -152884 152697#1 153128 -152798 152826#0 -153422#1 -152920#0 152919#2 153629 152325 152318 152173#5 152797 153322#2 153438#1 153419#0 -152670#5 152286 -152243 -152794 153674 -152962#4 153173#0 -152902 -152698#2 152302 152835#4 -152487#0 -152698#0 -152732#0 152555#3 152157#2 152440#1 -152610 -152481 152719 153331#1 -152603#0 153161 152624 152796#2 -152835#4 -152319 -152680 152810#2 152968#2 153202#1 -152793 -153437#1 -152635 -152835#0 153243#2 -152989#0 152407 152837#5 152243 -152933#8 -153019#8 152844#3 -152714#2 -153027 152722#3 -153358#2 -152818#0 152479#3 152730#1 152964#0 -152717 152244 -152988#0 -152691#2 152152 152176#2 153436#13 152180#4 153255 -152501 152788#1 153126#1 153514#0 153632#1 152983#2 153436#6 152157#5 152726#1 152857#6 152611#2 -152736 -152968#1 152337 -152730#2 -152442 152831#1 -152403#0 -152964#1 -152329 -152669#4 152615 152480#0 153419#2 153575#0 -152671#1 153319#2 -152810#3 -152480#0 152992#3 153194#1 153247#0 -153029#0 153274#1 152176#1 -152851#1 152440#0 -152821 152669#0 152730#2 153181#1 153248#3 152896#1 153177#1 152176#0 -153358#4 -152698#1 152306 153619#1 -152788#3 152675#1 -152418#4 -152556#6 -152681#0 -152833#4 152556#3 153135 152423 152693#2 -153672#1 -152835#1 153149#2 153467#3 -152226 153403#2 -152698#4 -152814 -153012 152780 152905#1 -152676 152159 153201 152477#0 -152183#0 153397#12 153611 153436#4 -153436#7 152179#0 -153006 -153419#1 152688#6 152512#5 152673#0 -152904#0 153323 153303 152853#0 -153662 152373#3 152967#0 152179#4 152959#2 152670#0 -152886 -152917 153005#0 152475#2 153315#0 153352#0 152960#0 153312 -152894#1 152443#1 -152493#0 -152670#1 -152960#2 -152567 153608 152793 -152244 -152512#3 153249 -152906 152722#5 -152837#4 -152881 152959#4 -152787#1 -152901#2 153152 153183 152173#1 -152835#2 -153577#0 -152983#4 152982#3 153421#3 -153427#1 -153019#5 -152681#1 -152476 -152737 152962#2 -152788#2 -152478#0 -152804#0 152417#1 -152700 -152808#2 152703#1 152694 -153352#0 152707 -152729#0 152535 -152627#9 152853#2 -152891#1 152180#1 152806#1 153649 -152994#5 153577#3 152406#3 -152534#1 153424 -152693#2 -153437#2 153352#3 153246 152698#2 152804#0 -153436#14 152635 152678#2 -153423 -152154 152310 152669#3 152179#2 152961#0 153572#2 152678#0 153568#1 -152312 152892 -153672#0 -152685#2 152408#1 152178#1 153157 -152857#3 -153421#2 152236 -152418#1 153136 -152381 153436#1 -152603#1 -152706#0 152697#4 -152706#2 -152804#1 153612 152559#1 153466 152175#0 152676 -153019#6 153290 -152556#3 -152722#1 -152724 153005#2 152491 152884 153403#5 153022 152833#5 -152669#0 -152688#9 152810#1 152857#4 152689#2 -153031#6 153244#1 -152403#1 152808#2 152626#1 152671#1 153320#1 153429#2 153540#2 -152627#3 -153436#16 -152600#0 152698#0 -152810#0 -152698#3 152170 153130#2 152808#0 153294 153436#0 152818#1 153139 -153402 153441 -152678#2 153144 152339 -152556#4 153324#0 -152309 -152678#0 152482 -152960#1 152164 153123 153250#1 -152555#3 -152826#2 -152809 153163 152839#4 -152844#0 -152405 153354#0 -152249 -153022 152717 -152824 153639#1 152990 152405 153677 152406#2 -152715#0 152685#0 -152823 152960#2 152567 153129 152699 152353 152800 -152195 152787#0 152923#0 153193 153358#4 -152189 152315 153175#2 -152915#1 152688#11 152241 -152605 152982#5 152966#0 -153462#2 152534#0 -152670#2 -152688#5 152285 -153467#3 -152835#7 152474 153005#1 152919#1 152894#2 152848#0 -152818#1 -152697#4 -153581 152814 153029#0 153296#1 -152835#5 153031#6 152698#5 152887 152493#0 152400 152501 -152879 153676 153160 152614 153277#0 -152781 -152838#1 152622 152681#1 153467#5 -153467#4 -153462#0 152727#2 -152688#2 -152779 152688#8 -152417#1 -152849 152916#2 152444 153198 -152683 153297#1 -152963 -152896#0 153571#0 -152559#1 -152353 -153514#0 153181#0 152835#5 -152831#2 153253#1 153122#0 -153464#2 152563 153428#3 152631 -152369 -152905#0 152374#0 153436#5 153319#0 152715#1 -152246 152826#2 152967#1 152632#0 -152441 -153019#3 -153661 -152919#2 -152406#2 -153428#1 152845#0 -153403#4 -152627#6 153583 -152983#3 -152890 -153571#0 -152675#0 -152922#1 153141#0 -152838#3 152290 -152627#2 -152846#0 152154 -152827 -152254 152511 153322#0 152798 152724 -152908#2 152732#2 -153031#7 -152604#0 152670#5 152688#2 152418#1 152291 -152835#9 -152408#0 152835#1 152636#0 153322#1 152900#1 -152919#0 -152971#0 152408#0 152688#7 -152611#1 152374#1 -152691#0 -152675#3 153610 -152839#3 152679#1 152888 152810#3 152690#0 -153503#7 152693#1 -152686 -152992#1 -152484#0 -152853#6 -152826#0 153534#2 152883 152416#2 152971#2 152675#0 -152795 152608#1 152685#4 -152472 153153 152966#1 -152627#5 -152556#1 152332#1 -152782 -152689#0 152709#2 152625 153503#7 152818#0 -152689#1 152789 -153352#3 152705 152180#3 -152684 -152384 152417#0 -152675#4 -152709#2 -152723#0 153436#10 -152182 -152722#2 152556#6 153293#1 152338#1 152734 153275#0 152991 -152483 152988#0 152725 152418#4 153519#3 153180 -152796#5 -153436#15 153436#3 153436#7 152787#1 152813#1 153244#0 -152835#6 153320#0 153248#5 153460 -152896#1 152239 -153397#12 -152730#1 152831#2 -152675#2 152806#2 152175#1 152838#3 -153460 152706#2 153324#1 -152962#0 152485 153228 153019#5 152473 -152608#1 152603#2 152895#5 152367#1 153662 -152853#4 153308 -152789 153034#1 153275#1 -152313 152329 152853#4 152842#0 153568#0 152729#1 153277#2 152844#0 -152808#1 152852#1 152806#0 152155#0 153419#3 -152852#1 152961#2 -152722#4 153436#12 152851#1 -152983#8 -152803 153240#1 153638 -152512#0 153613 -152801 153438#3 152685#6 -153438#3 152891#0 153179 -152328 -152401 -153673 152669#2 152919#0 153281#0 153572#0 -153436#10 -152959#3 -152604#1 -152633 153140 152604#1 153226 -153403#3 153106 153582#1 153403#0 152301 -152236 152788#3 153310#0 -152727#1 -152828 -152960#0 -152962#1 152852#2 152157#1 -152692 -152835#11 152817#0 153669 -152250 153436#16 -153424 153462#2 -152852#2 152627#7 152956 -152616#1 152478#2 -152673#0 152689#1 -152670#3 152727#3 -152835#10 -152826#1 153019#6 153202#2 152895#0 153239#1 153640 -152512#1 152636#2 152891#4 153166#0 152174#2 152835#7 -152994#0 152483 153271#0 152805#0 153142 152983#6 153577#1 -152718 -152634 -152808#0 -153436#12 153293#0 153107 153248#1 152418#0 152837#3 152857#5 153154 153103 153151#1 -152687 153239#0 152840 -152833#5 153422#1 152989#0 152687 -152732#2 152839#2 152726#0 -152836 152157#6 152698#3 -152903 152600#0 -153354#0 153403#3 152670#4 153516 -152187 152530#0 153325#1 153325#0 152373#2 153010#1 -152485 152512#0 152886 -152819 153253#2 -152559#0 152556#0 153108 153535 -152420 152962#1 153321#0 153438#0 -152160 -152417#2 -152853#3 -152837#2 -152796#4 -153360 152475#3 -152885 153534#0 152849 152698#1 152317#0-AddedOffRampEdge -152418#3 -152670#0 152989#1 153318#0 -152386 152691#4 152669#1 152801 152173#3 152249 152313 152697#0 153134 153243#0 -152791 -152830 -152878 -152622 -152688#1 -152190#0 -152484#1 153173#1 153251#0 153311#2 152627#4 152559#0 153220 153225#1 -152627#4 -152707 153571#1 -152723#1 -152400 152183#1 153010#0 152835#11 -152727#3 153175#1 -152418#0 153277#4 152983#1 152782 152835#0 -153663 152982#1 152992#0 153419#1 152688#1 -153571#1 153536#2 -152959#4 -152183#1 153169 153316 153437#0 -152732#3 153304#1 153104 -152715#1 -152512#2 -152512#5 153188 153307 -152817#0 152683 152879 -152631 -153010#2 -153403#2 153352#2 153019#2 -152839#2 152835#8 -153572#1 152783 153534#1 152857#2 153575#3 -152810#1 -153419#3 152441 152480#1 152312 152531 153254#2 152727#1 153327 153310#2 153343#0 153184#1 152555#2 152913#1 152709#1 152895#2 152714#0 -153352#1 -152837#0 152185#1 152319 153436#15 152837#0 153189 153202#3 153031#7 -153588#0 152971#0 153019#4 152827 152805#1"/>
    <!-- id="14" name="Roquebrune-Cap-Martin" -->
    <taz id="14" edges="-153016#0 153366#0 153042 -153397#0 -153401#2 -153036 152575 152587#0 153385#0 153503#6 -153045 152579#2 153017#0 152955#2 152577 152598#0 153382#1 -153366#0 153531 152565 153615 153370#0 153508#4 -153391#0 153508#2 -152261 -152486#0 152297 153114#1 -152589 153394#0 -153390#0 153346#4 -153040 -153386#3 -152193 -152587#1 -153346#1 152579#5 153381#1 152602#5 153017#1 153556#1 152366#1 152993#0 153390#0 -153514#0 153348#2 153391#1 -153013 -153037 -153503#1 -152566 152229 -153404#4 153349#3 153380#0 -152579#2 -153016#1 -152359 -153396 -153372#3 -152569 -152568 -152576 152294 153346#2 153384#0 152486#0 -153377#2 153109#1 -153368 153037 153112 153260 153349#2 152370 152234 153113#0 -152304 -153387#1 -153603 153556#3 -152596 152165 152598#1 153679 -152602#2 152537#1 -153388#1 -152584#1 -152365#1 153044 152259 153373 -153503#3 153040 -153578 153601#1 -153394#1 -152995#1 -153349#3 153039 -153388#2 -152239 -153082#1 153384#2 152533#4 -153370#1 -153599 152361 153395#3 -153374 152955#1 152590 153503#4 -152587#0 152603#0 -152579#0 153388#4 153116 -153569 -152602#1 153117#1 153395#2 152279 153372#0 -152462#0 -152263 -153015 -153381#1 -153508#3 -152604#0 -153385#1 153503#2 -152610 -153017#1 -152265 152356 153222 -152573 -152603#0 153395#4 -153395#0 152354 152602#0 153394#1 153016#0 -152993#1 153018 152327 153404#0 -152460 -152980 -152602#4 -152583#0 152600#1 -153384#0 153041#2 153503#0 -153346#2 -152360 153390#1 152238 152608#2 -153388#0 -152264 -152600#1 -153366#2 152461#0 -153503#5 -153508#1 -152598#3 -153043 -153601#1 153508#1 -153503#7 -152583#1 -153372#1 153118#0 -152509 -153386#0 153401#1 153564 -153348#2 152995#0 153514#0 -153380#2 -153038 -152579#1 153375 152326#1 -153018 153401#0 -153389#0 152579#1 153371#1 152579#4 -152574 -152211 -153388#4 153503#7 -153349#1 153528#1 -153378#1 153394#2 152462#2 -152579#4 152573 153515 -153349#0 153398 -152598#0 153118#1 -153380#0 -152358 -153386#2 153378#0 153371#0 152278 153378#2 153388#2 -152579#5 153262 153119 -153371#0 -153503#6 153349#4 -153394#0 -153406#5 152606#2 -152578#0 -153083 152579#3 152610 -153373 153404#1 -152602#0 -153371#1 -152602#3 152509 153378#1 -153378#2 152262 -152639#1 -153079 152239 152360 152566 153378#4 153384#1 153120 153601#0 -152259 -152494 -153347 -153390#1 152993#1 153370#2 -153376 -153601#2 -153395#3 152533#2 152462#0 -152368 152955#3 -153391#1 -153366#3 152261 -153380#1 153377#0 152326#0 153259#0 152539 -152564 152581 152995#2 152598#4 153641#1 153386#3 152303 152598#2 153394#3 -152462#3 153371#2 -153375 153110 153381#0 152606#1 -153386#1 153386#0 -153401#0 152568 -152268 -152599#1 152602#4 152608#3 153366#1 -153387#0 153391#0 153366#2 153600 152368 -152572 153395#1 -152513 -152462#2 -153515 152571 -153044 152582 -153389#1 153117#0 153388#0 -153035#0 153041#0 153388#3 -153395#2 153528#0 -152266 -152233 -152303 -152548 -153366#1 -153369 -153503#0 -152235 -152590 -152571 -153039 -153379 152213 152292 -153393#1 152584#1 -152578#1 152235 152268 -152461#1 -153384#2 153346#1 153369 153578 -153508#4 -152582 152228 -153383#0 152533#1 153376 -152462#1 153404#4 -152608#2 -153393#0 153041#1 153508#0 -152604#1 153530 153393#1 152604#1 153393#0 -153394#3 -153377#1 153261#2 153404#3 152578#1 152602#1 -153382#0 -152236 -152579#6 152572 152583#1 152605 153115 -153348#1 152541 -153401#1 153368 153503#5 152598#3 153366#3 -153041#2 153556#0 -152565 152365#0 -152581 153346#3 152358 -153349#4 153347 -152355 152597 -152995#2 -153348#0 -152238 -153372#2 152586 152293 153109#0 -153371#2 152265 153529 153386#2 153514#3 152462#3 -152365#0 152585 153378#3 152639#1 153380#1 153396 -152241 153372#4 -153503#2 153508#3 153374 153392#0 -153042 -153384#1 153219 -152357 -153394#4 -153404#5 152583#0 153035#1 -152185#0 152570 153651#1 153651#0 153111 -153508#2 153399 153601#2 152564 -153385#0 152192 152236 153404#5 152587#1 -153388#3 -153395#1 -152577 153377#2 152600#0 153387#1 -153378#3 152193 -153346#4 152266 152599#1 -153041#0 -153404#2 -152598#4 -152602#5 153603 -152327 153258 153383#0 -153508#0 153114#0 -153601#0 153013 153386#1 -152192 153385#1 -153395#4 -152584#0 153113#1 -152993#0 153389#0 -152598#2 -153041#1 153382#0 153503#1 -152579#3 -152262 152359 153372#1 -152600#0 -153346#0 152548 152460 -153392#0 153627 152955#0 152538 152540 -153514#3 152574 -153404#0 -153591 -152586 152486#1 -152267 153242 152357 152462#1 -152580 -153101 -153392#1 153043 153570 -153377#0 153556#2 152995#1 153223 -153372#0 153348#1 153617 -152240 152494 -153600 152602#3 153641#0 153038 152263 152602#2 153370#1 153392#1 -153399 152579#6 153079 -152356 152589 -153372#4 -153378#0 152547 -153394#2 -153382#1 153372#2 153377#1 153388#1 -152486#1 -152585 -153017#0 153569 153383#1 152513 -152995#0 153259#1 -153370#0 152584#0 153101 153380#2 -153570 -152461#0 -153370#2 152542 153349#1 152296 153599 152569 153394#4 -152165 -152608#3 153503#3 152365#1 -153346#3 152240 152533#3 153372#3 153404#2 152241 153401#2 -152598#1 153387#0 -152605 152580 -153503#4 152537#0 152604#0 -153381#0 -153378#4 152461#1 152267 153261#1 153397#0 153591 152295 -153404#3 152304 -152361 153045 153346#0 -153404#1 -152547 -153349#2 153016#1 152596 153017#2 153083 153389#1 153650"/>
    <!-- id="13" name="Beausoleil" -->