
<tazs> 
    <!-- id="33" name="gw33" -->
    <taz id="33" edges="152273 152272"/>
    <!-- id="45" name="gw45" -->
    <taz id="45" edges="152554 153656"/>
    <!-- id="34" name="gw34" -->
    <taz id="34" edges="-153346 -152543 -153345 153345 152547 153346 -152547 -152191 152543 152193"/>
    <!-- id="44" name="gw44" -->
    <taz id="44" edges="152574#1 -152574#1"/>
    <!-- id="43" name="gw43" -->
    <taz id="43" edges="153436 -153436"/>
    <!-- id="32" name="gw32" -->
    <taz id="32" edges="152525#0 152323#1"/>
    <!-- id="42" name="gw42" -->
    <taz id="42" edges="153452#0 -153452#0"/>
    <!-- id="41" name="gw41" -->
    <taz id="41" edges="153460 -153460"/>
    <!-- id="31" name="gw31" -->
    <taz id="31" edges="152193 -153478 -152191 153478"/>
    <!-- id="1" name="Monaco" -->
    <taz id="1" edges="153413#9 -152667#2 153230#0 -152660#0 152973 152234 -152960#3 -152882 152350 152402#3 -152386#0 152836#3 -152870#3 -152226 152594 152674#0 -152292 -152688#0 152582#2 152353#4 -152383#1 152617 -152832#1 -153008#6 152615#1 152814#9 152943#1 152996#4 153161#1 153413#13 152353#3 -152704 152513#1 -152836#3 -152386#1 -152773 -152789#3 152948#0 -152827#0 -152902#0 -152788 152606#6 -152582#1 153398#0 153335#1 -152601 152817#3 152535#4 153204 153299#2 -153398#3 153274#1 152153#5 152810#0 152286 152648#4 153221#1 153143#1 153588 152685#2 152715 153131 -153405#1 152879#0 -152658#1 153224#0 -152694#0 153548#1 152664#5 152996#3 153310 -152582#4 152823#2 -152823#0 152137#4 152982#4 -152677#2 152460 152798 153283#1 -152135#1 152870#4 153172 152451 153405#3 152654#2 -152880#1 -153006#0 153298#2 -152694#1 153141#1 152708#1 152677#4 152827#1 152659 152836#6 152497 -152459#0 -152830#1 -152298 152793 153224#2 -152899#1 152159#0 -152711#3 152297#0 152649#3 152864 153077 -152706#1 -153415#3 152667#3 -152960#6 152312#2 152354#1 -152898#1 152902#0 153225#4 152802 152969#3 152171 -152174#1 -152380 153175 153225#1 -152650#2 153244 152938#2 -152648#5 152291 -152397#0 153405#1 -152606#1 -152672#1 152491#5 -152816#3 152787#2 152859 153493 152766#1 -152789#4 -152816#4 153115 152652#1 153179#4 153136 -152858 -152940 -152825#0 -153406#2 152886#0 -152884#0 152816#1 152662 152707#0 -152812#1 -152701#3 -152871 -153559#3 152648#2 -152595#1 -152666 -152140 152615#2 -152466#0 -152364 -152670#2 -153559#2 -152664#2 152319 152879#1 152939#4 -152938#1 152655 153280 152509#0 153247 -152224 152810#1 -152480 -152888 -153480#7 152154#2 -153413#11 -153554#2 152534#4 -153413#10 -152776 153335#4 152664#1 153114#1 -152966#1 152812#3 153379 -152669#1 152887#2 153274#3 -152649#3 -152676#3 -152818#3 153258#0 152676#0 152582#4 153254#3 153513#1 153415#0 -152649#1 153289 -152936 152975#1 153552#2 152170#1 -152868 152676#1 152965#0 -152814#6 152606#4 -152398#2 -153380#2 152865 153396#1 153299#0 152305 153220#1 152704 -152812#0 153413#6 152960#4 152582#3 -152969#0 152650#2 152781 -152686 -152400 -152794 -152883#2 152388#1 152774 152398#3 -152463#1 152606#3 152137#6 -152787#2 152785#2 152786 -152701#0 -152397#2 152683 153613 -153380#1 153107#0 153405#0 -152491#5 152135#1 152616 -152883#1 153297#2 -152389 152420 152832#6 -152816#2 153170 -152877 153439#0 152535#2 152890 152814#10 -152775#4 152175 152814#3 153221#0 -152775#2 -152534#0 152396#1 -152814#11 153146 153287#2 152969#2 153248#0 152613 152318#3 -152881 152466#1 152160#0 152458#0 -152969#2 152880#2 -152823#2 -152170#1 -152880#0 152836#5 -152589 152457#0 153609#0 152660#1 152155#1 153374#11 -152230 -152792#1 152945#0 152162 -152790 152220 152814#5 152821#1 152402#2 152649#1 152709#1 -152781 152538#0 152812#5 153586 152895#2 152682#1 152820 152974 152457#2 152490 152832#1 152153#0 -152758 -153638 153158#2 -152607 153272 153415#3 152271 152546 152612 152318#4 153122#1 152703 152156#1 152969#0 -152491#0 152464 -152836#4 153121 -152139 -152170#0 -152270 -152470 152402#0 152944#1 152701#4 152664#6 -152934 153308#1 -153413#15 152587#1 152818#2 -152805#1 152829 -152830#2 152945#2 -152939#0 -152939#5 -152422#1 -152383#0 -153553 -152650#1 -152818#0 152780 -152398#3 152701#1 152886#1 152585#1 -153405#2 153100 -152712 152809 153380#3 153298#1 153517#2 152823#0 -152648#2 -152715 -153650 -152899#0 -152459#1 -152778 -152583#0 -152815 152899#0 152831#2 152646 152163#1 152670#0 153551 152880#1 152660#0 -152308 152398#2 -152387 152868 -152678 -152805#0 152818#1 153554#1 152884#0 152161#1 -152814#0 152975#4 152937#3 152361 153230#1 -153380#4 -152814#1 152982#0 153217#0 152789#3 153587 152667#1 -152818#2 153606 153281#1 152779 -152965#0 153103#1 153267 -152886#1 152648#1 153415#2 152461 -152832#4 -152939#4 -152791 152784#0 -152831#1 153520 152940 152960#3 153295#0 152383#1 -152814#4 -153551 -152679 -152825#1 -152132 152814#1 -152783#0 152669#1 153099#1 153274#0 152814#8 -152605#1 153159 153406#0 153167 152711#0 153320#1 -152780 -152535#4 -152805#2 -152821#0 152363#0 -152535#1 -152814#8 152937#0 153227#1 153291#0 153320#0 -152386#2 152945#1 -152590#0 153165 -152354#0 -152941#3 -152824#0 152144 153085 152150 153406#2 153649#0 -152774 152778 -152817#2 153548#0 152706#3 152872 -153444#3 152309 152318#1 153117 -152969#1 152677#3 153126#1 152535#1 152883#1 153651 153163 152155#0 -152860 153143#0 153517#1 152667#4 -153441#2 -152289 -152870#1 152318#2 152759 -152649#4 152297#1 -152831#2 152606#0 153103#0 152784#1 153511#2 152987#1 152987#0 152817#0 153292#0 153296#2 153133 152676#2 -152775#5 -153415#1 152384 152386#0 -152706#0 152816#0 152889 152459#0 -153413#5 -152814#9 -153273#1 153081 -152960#10 153122#0 -152674#1 -152796#1 -152872 153291#1 152866 153399#0 152648#3 -152832#5 153225#6 -153404#1 152767#1 152814#6 153203 -152453 152606#1 -152766#0 153011#0 153252#1 -153335#4 153176 152817#1 152159#3 152583#0 -152702#1 -152657#2 -152701#1 -152590#1 -152617 153296#0 152896 153398#2 152284 152975#2 -152398#4 -152657#1 152347#0 152418 152491#2 -152988 152996#5 -152534#4 152153#2 152693#1 153084 152134 -152606#2 153585 152579#0 153304 153252#0 152947 -152676#4 152466#0 153113 152775#2 -152870#2 153156 152266 152685#3 -152654#4 153153#1 152823#1 153591 153158#1 152363#1 -152769 153150#0 152825#1 -152958 152770 153215 -152875#1 153154#1 152996#6 -152219 -152608 152654#4 -152685#0 -153560 152821#0 -152693#1 152153#3 153374#10 152766#0 -152779 -153548#0 152221 -152309 -152945#1 -152884#1 152667#2 -153374#11 -152688#1 152300 152684 153105 -152960#7 -152670#1 -152709#0 -153415#0 153254#4 -153374#10 152888 -152319 -152583#1 -152396#1 -152685#2 152664#0 152998 -152647#2 152805#0 153166 153130 -152937#2 152814#0 152701#5 -153439#2 -152997 -153401 152160#4 152777 153654 152898#2 153640 -153559#4 -152673 152159#4 152960#2 -152830#0 152163#0 -152763 153162 -152163#1 -153399#0 -152535#0 153249#1 -152941#0 -152457#2 152669#0 -152604 -152221 -152886#0 -152967 152535#6 153616#1 152312#1 -152668#1 152701#2 152463#1 153559#1 -152649#5 152775#4 -152300 152657#1 152814#7 -153556 152157 153294 -152606#6 153550 -152784#0 152997 152814#4 -152587#2 152816#5 -152762 -152887#0 153297#0 152677#1 152960#10 153306 152874#4 153413#15 152383#0 152132 152812#2 153645 152824#1 -152647#0 152230 -152466#1 153202#1 -152966#0 152765#0 152797#0 -152668#2 -153413#7 -152760 152491#1 152137#3 -153374#12 152654#0 153248#1 152603 -152890 152605#2 152699 -152960#5 -152664#6 152941#3 152688#1 153517#4 -152613 -153444#2 153224#1 152787#1 152363#2 -152667#5 -152606#8 152996#8 -152873#3 152939#1 -153413#8 -152870#0 153154#0 152983 152167 152486 153301#0 153559#4 152775#3 153414#2 153118#0 153179#0 152982#2 152937#2 153231#2 153149 153268 -152133#0 153297#1 152982#1 153621 152806 -152971#0 -152391 -152175 -152792#0 -152836#1 -152887#2 152650#1 152647#2 -153335#2 152808 -153335#3 152686 153626 152676#3 -152883#0 -152898#0 -152587#3 -152655 152160#3 152364 153554#3 153414#0 -152654#0 152468 152867 153559#2 -152987#2 152996#7 -152606#7 -152885 -152386#3 -152293 -152996#5 153225#5 -152349 153225#0 152534#2 -152651 152137#5 -152472#0 -152472#1 153142 152960#7 152387 153228#1 -152793 153112 152873#0 153138 153160 152688#0 152667#9 153298#0 152693#2 153446 152534#0 152353#1 153228#2 152706#1 153413#4 152711#1 -152938#2 -152538#0 -152546 153380#4 152771 152870#2 -153549#0 153617 -152767#0 152797#1 152874#1 153288#1 -152707#0 152593 -152587#1 -152832#3 152583#1 -153413#16 153329#1 153139 -152420 153216#1 -152808 -152361 -152667#4 -153329#0 152969#1 152860 153195#1 152959#2 -152284 153274#2 152653 -153329#3 -152696 152677#2 153281#0 -152451 153171#1 -152814#10 152454#3 152939#5 -152163#0 152760 -152786 152663 153649#1 -153398#0 153253#1 153413#5 -152987#1 -153396#0 152158#0 152169 152458#3 153552#1 -153558 152670#1 -152615#2 153197 -152900#1 152789#0 152982#3 -152658#0 152155#2 153076 152153#1 152884#1 152996#2 152664#3 152701#0 153126#2 -152948#0 152398#0 152664#2 152782 152289 152941#1 -152814#7 153129 -152162 152139 152386#2 -152709#2 -152896 152697 -152384 152971#5 -152787#1 152814#11 -153379 153169 153399#1 152311 -152169 152875#1 153396#2 153148 -152648#0 152422#0 153143#2 -153549#2 152498 152668#0 152702#0 153011#1 -153337 153286 153337 152582#1 -152969#3 -153414#2 152812#4 153141#0 152402#1 153511#0 153405#2 153279#1 153152#0 152942 -152650#0 -152775#0 -152674#0 152606#7 152705#1 152138 152462 152454#4 153179#1 153179#3 -152870#4 -153396#3 -152948#1 -152667#1 153288#0 -152676#0 -152220 -152418 152881 152159#2 152828 153418 152796#1 153195#0 -152895#0 -152397#1 -153554#3 152936 -152832#0 -152705#0 153253#0 -153640 153231#1 152688#2 152801 152858 152796#0 -152938#0 153254#1 153270#0 153279#0 152137#7 -152534#2 153396#4 -152542 152672#1 153396#3 -152937#0 153205 152706#0 153292#1 -152668#0 152459#1 -153011#0 -153413#13 152317 -152615#1 152582#0 -152812#4 152862 152875#0 153444#5 -153008#7 152270 -152676#1 -152867 152882 152989 153101 152899#2 152935 152657#2 152767#3 -152819 -152889 152456#1 152870#1 -152828 153075 -152661 -153396#1 -152606#9 152395 -153413#1 153517#3 152661 -153273#0 153413#8 -152821#1 153335#3 152817#2 153080 152825#0 -152593 152767#0 152607 152965#1 153251#1 153554#2 -152821#2 152353#2 -152708#1 152671 152827#0 153217#1 -152876 -152669#0 -152654#2 152606#2 -152996#3 152534#5 -153335#1 153225#3 -152766#1 -153415#2 152584 153398#1 -152606#0 152816#3 152830#1 153512 152587#0 152832#4 153513#2 -152824#1 -152807 152767#2 152934 -152216 -152814#2 -152873#1 153295#1 153220#3 152816#2 -152677#5 152681 152590#2 153269 -152590#2 -153405#3 153646 -152677#1 152534#6 -153649#0 152587#3 -152534#6 153223 -152491#1 152491#3 152901#1 153329#0 152885 152960#5 -152538#1 -152716 -152864 152667#8 -152996#4 152761 152282 -153418 152670#4 153220#2 -152452 -153559#0 -152606#3 -152648#4 -152463#0 -152869 152349 152712 153258#1 -152654#3 153331#1 -152811 -152223 -153437 152657#0 -152605#0 152679 -152873#0 -152381 -152468 -152714 153227#0 -152652#0 152363#3 153406#1 -152681 153008#6 153556 -153639 152830#2 152382 153198 153308#2 -152802 152137#1 152589 153226 -152816#1 152457#1 153413#11 152137#0 152455 152799 152454#1 152601 -152395 152154#0 153111 -152682#2 -152602 153521 152875#2 -152996#8 152857 152463#0 -153648 153638 -152685#3 152792#0 153127 152159#5 -152462 -152761 -152960#8 153270#1 153252#2 153126#0 153415#1 153228#0 153302#0 153110 -152706#2 -153413#14 153287#0 -152767#2 153164 153201 153107#1 152894#1 153128#1 153548#2 153396#0 153118#1 -152859 153302#1 153216#0 152968 153398#3 153414#1 -152708#0 -152799 152453 152333 152870#0 153439#2 152649#5 -152949 153008#7 152505 -152789#1 152419#1 -152875#0 -152810#2 152224 152787#0 -152491#3 153152#2 152165#1 153589 153653 153545#0 -152605#2 -152777 153231#0 152667#7 152836#4 152456#0 153519#1 152899#1 152949 153273#1 -152887#1 152397#1 152312#0 -152134 153648 152763 153296#1 153596#1 153375 -152649#2 152871 153480#7 153106 152535#0 152987#2 153150#1 152290 152795#1 -152863 152874#3 152648#5 -152660#1 -153329#1 152676#4 -153380#0 -152421 -152783#1 -152697 152298 152706#2 152785#1 153134 -152865 152959#5 -152900#0 153329#3 152775#5 153274#4 152219 153083 152873#1 -153011#1 152805#1 153650 -152464 -152937#4 -152513#0 -152665 -152535#2 152811 -152606#4 152883#2 153233 -152647#1 153545#1 -152939#1 -152960#2 -152614 152293 152946 153559#3 -152996#7 153161#0 -152711#1 -152818#1 152814#2 152611#0 152716 -152873#2 152874#2 -152582#3 152698 153178 152423 -152234 152398#4 152678 -152683 -152831#0 153554#0 152648#0 -152299 152287 152160#1 152320 -152667#9 -152667#8 -152664#5 -152663 -153554#1 152458#1 153401 153590 -152832#6 153549#2 152458#2 152509#1 -152706#3 -152664#4 152421 -152798 152668#2 152789#2 -152898#2 -152422#0 152873#2 152223 -152460 -152945#2 152491#0 -152649#0 152714 152615#0 152667#6 -152191 152651 -152827#1 152701#3 153413#1 152999 152807 -152703 -152801 153288#2 152877 -152677#4 152713 -152941#1 152534#7 153413#10 -153414#0 -152676#2 152710 -152965#1 153596#0 152452 152870#5 152959#3 -152768 -152996#2 152673 152960#1 -152534#7 153655 -152866 -152388#0 -153004 -152770 152775#0 -152615#0 -153398#2 -152672#2 153006#0 153254#2 153232 152153#4 -152664#1 -152646 152654#3 -152836#6 152966#0 -152396#2 -152584 152206 -152812#3 -152796#0 153177 152765#1 153652 -152797#0 152967 152832#3 152944#0 152836#2 152898#1 152831#1 152419#0 152472#1 153157 -153331#1 -152941#2 152836#0 153220#4 -152971#5 152391 153273#2 152388#0 152832#5 -152135#0 152667#10 -153550 -153413#9 152605#1 -152505 -152817#0 -152385 152156#2 153413#12 152874#5 -153406#1 152650#0 152135#0 -152648#3 152174#1 -153554#0 -152880#2 -152989 153615 153287#1 152649#4 -152667#6 153404#1 152389 152604 152941#0 152988 153152#1 152292 -152587#0 152647#0 153413#7 152538#1 -152662 -152693#2 153616#0 -153549#1 153290 153225#2 152941#4 153639 153443 -152894#0 152159#1 -152606#5 -152945#0 -152809 152941#2 152791 152773 153380#1 153214 152193 152876 152665 -153413#12 152960#6 -152960#0 152937#4 -152823#1 153305 153116 -152699 153518 152658#0 152943#0 -152857 152705#0 152590#1 153444#4 153609#1 152649#0 -153559#1 -152670#4 -152817#3 152887#1 153549#1 153413#3 -152671 152711#3 152606#8 153335#2 152542 152354#0 153285 152831#0 -152797#1 152960#8 -152971#4 -152912#8 152510 152609 -152347#0 -152653 153293 153299#1 152816#4 152664#4 152470 152608 -152701#2 152900#0 152297#0-AddedOffRampEdge -152648#6 -152603 153254#0 153437 -152937#3 -153413#0 -152713 152156#0 153300 -152347#1 152702#1 153251#0 153413#14 153151 152870#3 153004 152805#2 -152305 -153380#3 152667#5 152682#2 152308 153230#3 152783#1 -152709#1 -153439#0 -152167 152823#3 -152398#1 152652#0 -152810#0 152707#1 152667#11 152944#2 -152836#5 152654#1 152803 152813 -152947 153595 -152398#0 153248#2 152296 153098#0 152216 -152895#1 -152996#6 152878 -152705#1 -152667#7 152454#2 152758 152670#3 152229 -152693#0 152585#2 -152457#0 -152814#3 -152664#0 153560 152472#0 -153329#2 152821#2 153119 -152814#5 153224#3 152503 152975#3 -152710 -152795#1 -152861 152959#4 153114#0 152347#1 152400 153220#0 152158#1 152668#1 152693#0 153275 152939#2 153513#0 -152767#3 152648#6 153140 -153396#4 153552#0 153179#2 -152999 -152486 153413#0 -153548#1 -153400 -153405#0 153496#3 153218 152966#1 153299#3 153291#2 152772 153380#0 152672#2 153137 153301#1 153230#2 -152535#6 152900#1 153284 153400 152587#2 -152616 -152702#0 152380 152818#3 152576 152658#1 -152688#2 153249#2 -152701#5 152677#0 -153413#3 152810#2 152606#5 -152894#1 153517#0 -152657#0 -152174#0 153273#0 153331#0 -153273#2 153614 152385 152386#1 -152654#1 152792#1 -152784#1 152800 153565#0 152826 -152388#1 -153404#0 -152892#0 153229 152883#0 -152667#10 153380#5 152403 153271 -152682#1 152869 -152804 -152206 152381 -152782 153153#0 152696 -152664#3 152396#2 152513#0 152137#2 152898#0 152971#4 152894#0 153250 -152806 -152789#2 -152939#2 -152457#1 -152582#0 153607 152819 -152229 152832#2 -153398#1 -152836#2 -152290 152938#0 -152659 152863 -152165#1 153413#16 152666 -152701#4 -152832#2 152480 152948#1 152295 153155 -152677#3 153158#0 152422#1 152154#1 -152987#0 -152609 -152892#1 152649#2 153283#0 152776 -153399#1 -153444#4 -152611#0 153438 -153649#1 -152787#0 152299 -152772 152677#5 152694#1 -152812#5 -152711#2 153282 152832#0 152768 -152684 152824#0 153109 -152878 -152810#1 -152582#2 -153476#0 152938#1 -152513#1 152674#1 -152937#1 152647#1 152595#1 152937#1 152312#3 152160#2 153099#0 -152775#3 -152789#0 -153413#6 152762 153245 153329#2 -152670#0 152170#0 -153413#4 152397#0 -152648#1 152785#0 153511#1 -153414#1 -152610 -152836#0 -152960#1 152174#0 -152165#0 -153331#0 153491#0 152709#2 152398#1 -152767#1 152606#9 153380#2 153553 -152816#0 152397#2 153549#0 152386#3 152892#1 -152960#4 -152901#1 152514 152281 -152579#0 -152983 152895#0 153171#0 152959#1 -152812#2 152602 153107#2 -152291 -152817#1 -152698 152873#3 152265 -152800 -152670#3 152789#1 -152455 152614 -152813 -152667#3 152812#1 -152491#2 152783#0 -152711#0 -152823#3 -153396#2 152610 -153548#2 -152612 -153491#0 153308#0 152818#0 152789#4 -152677#0 -153406#0 153123 -152333 152874#0 152670#2 153444#3 -152534#5 -152803 152836#1 153552#3 152711#2 152794 153249#0"/>
    <!-- id="14" name="Roquebrune-Cap-Martin" -->
    <taz id="14" edges="-153323#4 -153364#1 152581#0 153372#3 153323#3 -153355#2 153347#1 -153355#1 -153363#3 152276 152243 153326#1 -152473 152218 152350 153361#1 152993#0 -152993#0 -152618#1 152209 -152569 -153359#1 -153022 153348#0 153343#0 -152213 153505#0 -152579#1 152565 153656 -152558#6 -153546 152348 153355#1 -152242 -153485#2 153485#1 153323#4 153485#2 -153372#0 153094#0 -152558#2 -153578#0 152556 -152220 -153360#0 152970#0 152441#1 153326#4 -153325#2 153019 152259 152558#3 -152568 152241 -153576 -153578#2 153628#0 -152239 -152172 152569 153219 152994#1 152306#1 153355#0 152337 -152441#2 153353 153372#4 -152560 153367#1 -153017 152581#5 153378#2 -152555 -153326#4 153357#0 152544 152557#1 -153368#0 152618#1 153347#0 -152441#1 153348#1 -152246 153349#3 153555 -152339 152518 152582#0 -153018#2 153364#1 -153347#2 -152243 -152547 -152556 152577#3 -153378#0 153095#1 152345#0 -152335 153381#3 -152548 -153381#1 152512#1 -152544 -152337 152193 -153021 153371#0 -152995 153238#1 -153351 153485#0 152246 -152553 -153480#4 152521 153343#3 152346#1 153092 -152283 -153353 -153378#2 -153343#1 153012#1 -152441#0 152559 152492 153627 -153349#1 -152992 152575 -153355#4 -153480#3 -153376 -153491#3 153374#0 152584 153480#5 153480#1 153091#1 -152241 -153371#2 -153325#0 -152551 -153371#4 152339 152583#0 -153012#0 153343#2 152247 -152216 -153480#1 153346 -153349#0 153371#4 -152545 -153354#1 -153347#1 152558#6 152248 -153015 152284 153078 -152994#1 -152345#1 153016 -152218 152441#0 153480#0 153360#0 -153323#1 -153060 153235 -152577#0 -153016 153371#3 152587#3 152273 152579#0 -152575 152551 153363#3 -152562#1 -152972#0 153351 153378#0 153096 153381#4 153354#2 -153347#0 152993#1 153507 152527 153325#1 152995 -153370#1 152465#0 153378#1 -153369#1 -152527 153480#4 152552 153354#0 152543 -152526 152972#2 -153365#4 -152219 152581#4 153014 153568 -153365#0 153015 152208 -153372#3 -152552 -153370#0 -152558#3 153365#4 -153350 152990 -153480#6 -153358#0 -152561 153239 -153366#0 153505#1 -153371#1 152221 152283 -153366#1 -153020 -152557#1 -153480#7 153546 153022 153323#0 -153323#2 153018#0 153381#2 -152440#0 152589 -152578#1 153369#1 152473 152970#1 153363#0 152216 -153348#2 152306#0 -153577 -153019 -152345#0 -152583#1 -153348#1 152214 153199 153349#2 153236#1 152562#1 152563#1 153354#1 153533#3 152585#2 153364#0 152440#1 -152173 153088 153594 -153578#1 153089 152307 153323#2 153196 -153348#0 -153363#2 -152221 153357#2 153372#1 -152565 -153323#0 -153367#0 -153555 153017 152488 -152245 -152970#1 -153485#1 -153363#0 152338 152558#1 152520 152275 153491#3 152441#2 153349#1 153370#1 -152587#2 152579#1 -153354#0 153362#1 153578#0 152512#4 -152348 -152145 152548 -152972#2 -153326#2 153365#1 152465#1 153020 -152564 -153381#5 153097 153541 -152440#1 152550 -153343#0 -153013 -152577#1 153365#3 153492 152440#0 153358#0 -153018#1 152587#2 -152581#0 -153365#3 -152581#2 152340 -153480#0 152576 152578#1 -152307 -152581#3 -153325#1 152258 -152558#1 153056 -152215 -152558#5 153200 153325#2 -153369#0 153357#1 -153358#1 153375 153381#5 -152589 153480#7 153577 153238#2 153368#0 153578#2 152336 -153364#0 153365#0 -152244 153093 153360#1 -153378#1 153533#0 -152439 -152340 153359#0 153355#2 -153381#0 152220 -152559 152441#3 152345#1 -153343#2 -153373 153086#0 153361#2 153485#4 153362#0 153485#3 -152990 -152581#1 153366#0 153018#1 152512#2 152561 152334 153323#1 152577#2 153480#2 153350 152526 152219 -153078 -152465#0 153324 153349#0 152341 153604 -152582#0 -153349#4 153359#1 -153349#2 -153372#4 -152338 -152341 -152543 -153480#5 -153367#1 152549 153533#2 153628#1 -153354#2 -153355#0 153090#1 -152970#0 -152577#4 153326#3 152581#1 -152587#3 153373 -153371#3 152994#2 -152563#1 153355#4 152245 -153357#2 -153374#0 -152465#1 153369#0 -153362#1 152972#1 -152957 -153371#0 153345 152547 -153362#0 -152336 152566#1 -152488 152516#0 153094#1 152558#5 -152248 152972#0 153358#1 152566#0 153361#0 -153365#1 -153326#1 -153326#0 152172 153367#0 153547 -153326#3 -153485#4 -153323#3 152562#0 -152581#5 -153361#0 153371#1 -153547 152568 153237 -152562#0 -152972#1 -153485#3 153576 153376 153363#1 152564 -153568 152239 153371#2 153580 153091#0 -153345 152585#1 -153357#0 -152577#2 -153356 153578#1 -153324 -153349#3 152581#2 153368#1 -153352 -152191 153349#4 152272 -153480#2 153021 -152566#0 153060 153381#1 152554 152519 152553 -152583#0 152583#1 -152557#0 153508 152581#3 153480#3 153090#0 -152492 153370#0 153618#1 -152284 -153357#1 152173 152517 -153346 -152165#0 152242 153491#0 152577#0 -152577#3 153381#0 152563#0 -153381#3 152577#1 153086#1 -153492 -153363#1 152274 -153014 -153343#3 152577#4 152145 153348#2 -152563#0 -152579#0 152516#1 -153368#1 -153381#4 -153056 153347#2 -152550 152439 153326#2 -152441#3 153236#0 -153485#0 -153018#0 153618#0 153372#2 -153359#0 153343#1 153533#1 -152247 153087 -152584 152994#0 -152994#0 -153381#2 152545 -152566#1 153363#2 152512#3 -152993#1 -153491#0 -153383#5 -153355#3 -152558#0 152215 153480#6 153366#1 -153372#2 153018#2 153352 -153361#1 -153372#1 152277 -152581#4 -153580 153095#0 152558#2 153506 153355#3 152560 -153361#2 153592"/>
    <!-- id="13" name="Beausoleil" -->