
<tazs> 
    <!-- id="33" name="gw33" -->
    <taz id="33" edges="152269 152268"/>
    <!-- id="45" name="gw45" -->
    <taz id="45" edges="152550 153652"/>
    <!-- id="34" name="gw34" -->
    <taz id="34" edges="-152187 153341 -152539 -152543 152543 153342 -153341 152189 152539 -153342"/>
    <!-- id="44" name="gw44" -->
    <taz id="44" edges="-152570#1 152570#1"/>
    <!-- id="43" name="gw43" -->
    <taz id="43" edges="153432 -153432"/>
    <!-- id="32" name="gw32" -->
    <taz id="32" edges="152521#0 152319#1"/>
    <!-- id="42" name="gw42" -->
    <taz id="42" edges="-153448#0 153448#0"/>
    <!-- id="41" name="gw41" -->
    <taz id="41" edges="153456 -153456"/>
    <!-- id="31" name="gw31" -->
    <taz id="31" edges="153474 -153474 -152187 152189"/>
    <!-- id="1" name="Monaco" -->
    <taz id="1" edges="153331#2 -153007#1 152812#2 153376#3 -152680 -152820#1 153549 152657 153327#0 152826#1 -152684#1 152487#3 -152698#0 152666#4 -152937#3 152156#2 152391 -152509#0 153509#0 153283#2 -153402#2 152506 153101 153508 153079 152773 153555#4 -152451 -152828#0 152956#5 152702#0 -152819#3 -152644#4 153226#3 152941#1 -152956#5 -152644#2 -152801#2 -152896#0 -152933#2 152781#2 -152202 -152666#2 -152394#1 152383 153410#0 -152933#0 -152376 152810#0 153548#3 152378 152955#4 -152961#1 -152396 -152697#0 -152702#0 152673#4 152510 -152992#7 -152828#4 -152653#0 -152812#4 -152869#1 152315 152225 153304#0 152819#0 -152707#2 -152812#0 -152866#1 152869#2 152763#2 153095#0 153151 -152855 153316#1 -153634 152133#1 152150#0 -152645#0 152343#1 -152812#2 -153410#1 153109 -152754 152769 152156#1 152814#1 -152645#5 153244#2 153507#2 153507#0 152450#4 153266#1 -153409#0 153434 152935#1 152307 153555#2 153225 152937#1 -152992#6 152699 152709 153132 153290 -152613 -153370#12 152698#0 152382#3 -152689#2 153509#2 -152663#1 -152466 153513#1 -152161#0 -152644#6 153103#2 -152810#0 -152611#2 -152583#3 152806#1 152956#6 152578#3 152293#0-AddedOffRampEdge -152645#2 152971#1 152761#0 152828#3 -152418#0 152345 153409#12 153592#1 -152832#6 -152814#0 152308#0 152895#2 153376#4 -152992#3 152762#0 -152215 153250#1 152759 152393#1 152755 152650#2 152808#2 152602#0 153613 153073 152288 153175#2 -152933#3 -152681#2 -152128 152708 152305 -152315 152695 152664#0 152785#3 153126 153167#1 152669 152956#8 152941#0 -152611#1 -152697#1 152171 -152130 153226#2 152871#1 152782 152283 -153476#7 -152663#10 -152985 -152579#1 153634 153644 152449 153583 152697#5 -152459#0 -152531#1 -152814#1 153331#1 152646#2 153435#2 152810#7 -152416 152794 153586 -152879#0 153327#1 -152694 -152158 152869#0 -152654#1 152606 153401#0 152827#0 -152810#2 152779#0 153153 152450#1 153122#1 -152934#1 152155#5 153114#0 152308#1 153145 -152664#2 152393#0 152679 153298#1 -152862 152293#0 152866#4 -152777 153191#1 152612 152663#6 -152896#1 152707#1 152706 -152663#2 -153269#2 152392#1 152603 153094#0 152767 -152965#1 152666#2 152149#1 153516 153376#1 152931 152792#0 152464 152398#3 152666#3 -152644#3 152790 -152876#0 152944#0 152505#1 -152890#0 153108 -152665#0 152604 153612#1 -153004#6 -153546 152487#2 152663#4 -152962#0 152215 152792#1 152819#3 153076 153221#3 -152810#11 152468#1 -152766 152956#3 153102 -152984 -152995 152881 152763#1 -152712 152380 152780#0 153254#0 152663#11 152832#5 153645#0 152940#0 152452#0 153440#4 -152672#4 152985 152930 152602#5 152313 -152650#1 152817#2 152870#0 152896#1 152131#0 -153000 -152586#1 152993 152156#3 -152891#0 152955#3 153396 153282 153296 -152287 152860 -152605 153545#2 -152329 153174 152644#6 -152965#3 -152979 152859 -152222 153325#2 -152393#1 -152468#0 152832#3 153552 152866#0 152978#4 153099#0 152933#2 153154#1 152346 -152651 152392#2 153265 152764 153292#0 -152819#0 -152602#1 -152663#5 152163 153117 152863 153171 -152225 152647 152359#1 152419 153103#0 152667 -152447 -152810#3 152152#2 152531#0 152607#0 -152798 153649 -152885 -152828#3 152644#2 152170#0 152285 152771#2 152455#0 -153545#1 -153392#1 152447 152586#2 152453#0 -152826#0 152700 152665#1 152965#1 152660#0 -153409#12 -153554 -152534#0 -153440#4 152646#1 -152813#3 -152956#0 152654#0 -152606 153392#2 -153409#15 -153269#1 -152808#5 152768 152810#8 152149#2 153409#8 152783#1 153155 152349#4 152867 153271 152394#2 153286 152476 152611#1 -152808#0 -152785#2 152602#3 -152806#0 152308#3 -152611#0 -152773 152866#3 152663#8 -153410#2 153212#0 152961#1 153548#2 152609 153609 -152531#2 -152589 -152888#1 152155#1 152810#2 152783#0 153110#1 -152649 153220#2 -152380 -152673#0 153394#2 153133 -152871#1 -152756 153409#1 152650#0 153221#2 152589 -152876#2 152292 152962#1 152817#0 -152455#0 -152660#4 152866#1 -152871#0 153223#0 152776 -152578#2 152961#0 153268 152939#1 152940#1 152150#1 152455#1 153148#2 153397 -152583#1 -152703#0 -152809 152217 152812#3 -152266 -153645#0 -152392#1 -153395#0 152828#2 152167 152963 -153376#1 152969 152762#1 153411#0 -152449 152788#0 152815 152933#1 152787 152578#2 152673#5 152994 -152890#1 -152701#1 -152531#4 -152810#8 -152220 152883#2 152672#0 152581#1 -152856 152777 152992#4 152816 153591 -153555#2 152701#0 153124#1 153241 153221#1 153371 152871#0 152864 -152704#1 -152170#0 -152509#1 -152934#2 -153550#2 -152289 152779#1 -153555#0 152599 152820#0 152454#3 153294#1 152575#0 -153409#5 -152170#1 152680 153289 -153395#1 -152935#0 152895#1 -152883#2 -152826#1 153248#0 -152682 -153549 152450#2 153163 153645#1 -152660#1 -153331#1 -152163 152933#3 -152935#1 153216#1 -153409#13 -152792#0 153513#2 153160 152655 -152967#4 152698#1 153227#2 -152869#3 152349#2 153175#1 153556 153555#1 -152701#0 -152603 152531#2 153545#0 -152812#3 152650#1 153226#0 153555#3 -152650#0 -153409#3 152781#0 152531#1 -152854 -153544#0 152672#2 153004#7 -152894#0 -152883#0 -152941#1 -152487#3 -152795 152663#10 153433 153219 -152586#0 -153394#0 -152383 -152814#3 -153370#10 153646 -152531#6 -152874 152602#2 152941#2 152956#4 152788#1 152394#4 153071 152149#3 -152881 153293#0 -152534#1 -152962#1 152453#1 152359#2 152823#1 -153644 -153394#2 152690#1 153544#2 -152895#1 -153375 152934#1 152663#9 -153636 -152667 152692 153095#1 152644#1 -152135 153411#1 153548#1 -152673#2 152644#0 153220#0 152653#1 -152586#2 -153547 152944#1 153247#1 152978#2 153325#1 -152159#0 -152602#9 152965#3 153250#4 153375 152876#2 -152604 152289 153548#0 -153333 153300 152673#0 -153331#4 152703#1 153144 -152661 152668#2 153487#0 152810#1 152814#2 -152679 153270#0 153270#2 152151#2 -152578#3 153201 153550#0 -152602#2 152810#10 152824 153250#3 -152785#4 153410#2 153642 153227#1 153509#1 -152934#0 153211 152666#0 153244#0 -152345 152937#2 152879#1 -153401#3 153149#1 152956#2 153148#0 152282 -152832#4 -152643#1 152791#1 153217#0 152581#2 152656#0 -152812#1 152650#4 -152230 152965#0 152296 152827#1 -152681#0 -153472#0 -153409#8 152828#1 153118#1 -152530#7 153004#6 -152677 152396 153129 152697#1 153270#3 152660#3 -152793#0 -152789 153166 153409#11 -153550#1 152454#2 -152956#7 152862 -152865 153150#1 152578#1 -153544#1 152602#1 153291#0 -152779#0 152832#0 152149#5 152888#1 152967#5 152663#2 -152802 153154#2 -153269#0 152359#0 153409#10 152873 152933#4 -152820#0 -152695 152530#2 152757 -153411#2 152382#0 152812#5 152590 152813#2 152801#0 -152803 -152967#5 -153394#3 152894#2 152304 152832#1 -152482 -152894#2 -152892 153127 153370#11 -152821#0 -152813#2 -153376#4 152897#1 152154#1 -152673#1 152828#4 -153325#0 -153400#0 153304#1 152832#6 -152642 -152647 152267 152382#1 152159#0 -152453#2 153301 152802 152866#2 -153402#1 -152857 152956#1 153411#3 152663#7 153411#2 152456 -152801#1 153612#0 -152784 153610 152855 153394#3 152992#8 153200 152810#3 -152295 152155#0 153298#0 152379#0 -152377 -152935#2 -152965#2 153275#0 153410#1 -152967#0 152493 -152788#1 153603 152660#4 152531#4 153175#3 153440#5 -153550#0 152291 -152468#1 152992#7 -152810#7 152807 152882#1 152689#0 153165 152672#4 152379#1 153439 152970 153270#4 -152880#0 152261 152454#1 153440#3 153168 -152530#5 153435#0 152509#1 152861 -152783#2 152350#0 -152877 -153556 152416 -152384#1 -152771#5 152693 152704#1 152710 -152301 153546 152935#4 -152992#5 -152612 -152476 152314#2 -152956#2 153409#7 152645#5 -152762#0 152890#1 152820#1 -153435#2 -152381 152382#2 -153410#0 -152665#1 152754 -152956#3 -152783#0 152821#0 153154#0 -152937#2 153224#0 -152678#1 153622 -152542 153146#0 -152394#2 -152530#4 152870#3 -152819#2 153072 152936 -152129#0 152673#3 -152806#1 152678#1 -152832#2 153284#0 -152601#2 -152699 153158 -152666#3 -152898#0 -152610 -152941#0 -152823#1 -153409#1 -153645#1 -152453#0 153106 -152343#0 -152805 153514 152663#5 152349#3 152418#0 152534#1 153103#1 153244#1 153220#1 -152859 -152941#2 152945 -152460 153175#0 -153396 153325#0 -152711 -153327#1 152894#1 -152666#4 -152993 -152697#5 -152944#1 153266#0 152530#5 -152455#1 -152832#1 -152884 -152983#2 -153545#2 152153 152673#1 152660#5 -152779#1 153156 153409#5 153647 -152462#0 152128 -152418#1 152771#0 153605#1 153287#2 -152646#0 152681#3 153636 153489 152806#0 -152159#1 152583#2 -153409#11 152939#0 -152801#0 -152935#5 152316 -152280 152882#0 -152706 -153392#2 153281 153138 -153411#1 -152698#1 152583#0 -152817#1 152770 -152666#0 153002#0 -152288 152955#2 153118#0 152940#2 -152578#0 -152663#8 152509#0 152591#1 153097 -152826#2 153123 -152296 153285 153297#1 153611 153139#0 -152607#0 -152684#0 153605#0 -152808#4 152295 152869#1 -152813#0 152891#0 152645#2 152702#2 -152393#2 152155#2 152983#0 152154#0 -152684#2 152399 -152965#0 152891#2 -152774 152157#1 153161 -153555#4 153650 152813#1 -152459#1 152220 152935#2 -152583#2 -152808#3 152301 152822 -152382#1 -152598 -153555#1 153283#0 -152697#2 152452#1 -152464 152494 -152575#0 152774 153587 152398#0 152819#1 -152702#3 153157#0 153641 -152394#0 152133#3 -152487#1 -152660#2 152801#2 -152360 -152807 153376#0 152771#3 153269#1 152808#5 -152700 153221#0 153270#1 152853 153394#1 153276 152934#2 152772 -153544#2 152684#0 153651 152642 153135 153561#0 -152656#0 -152350#0 152645#4 -152810#4 -152815 152602#4 -152675 -153411#3 -152817#0 -152873 152165 -152785#0 -152165 152659 152608 -152961#0 -152936 153602 152971#4 152796 -152171 -152780#0 152487#1 152804 -152878 152758 -152702#2 -153325#2 152189 -152458 153249#1 152856 152579#1 152870#2 153292#2 152393#2 152712 152813#0 -152956#1 -152530#0 -152868 153217#1 152598 153134 153122#0 -152673#4 -152645#1 153216#4 152462#0 152134 153316#0 -152131#1 152130 153081 152697#4 152216 152226 152711 153545#1 153157#1 -152670#0 153122#2 -152669 -152983#0 -152693 152832#4 -152943 -152956#4 -152660#3 152611#0 153331#4 -153411#0 153224#2 -152771#3 152967#4 153175#4 153288#1 152662 153223#1 -152663#3 153402#0 153136 153292#1 -152653#1 -152578#1 153216#0 153113 152771#5 -152645#3 -152771#2 152962#0 153302 -152785#3 -152992#8 -152663#6 -152702#1 153401#2 152826#2 152979 152810#11 152933#0 152766 -152382#2 -152538 153146#1 153513#0 153392#0 152501 -152692 153147 153000 -152666#1 -152705#2 152803 152360 152812#1 -152800 -152886 -152648#0 153394#0 152694 153635 -152810#10 -153400#1 152202 152798 -152187 153541#0 -152944#0 152797 153550#3 152459#0 153279#1 152789 -152810#6 -153409#4 153325#3 152876#1 152678#2 153584 152938 -152853 152937#3 153137#1 -152674 152579#0 -152806#2 -153392#4 152580 152978#3 -152882#1 -152585 152894#0 152538 152810#9 152697#3 152827#2 153269#2 153284#1 -152930 152775 -152453#1 -152788#0 152879#0 153220#3 152978#1 152583#1 153159 -152448 152983#1 153402#1 152414 153294#2 -152933#1 -152644#5 152682 153077 153130 152702#3 153193 153114#1 -152212 -152578#4 -152828#1 -152769 152810#4 152278 -152602#5 152810#5 -152963 153409#14 152870#1 -152580 152212 -152863 153507#1 -152956#8 -152710 -152707#1 -152894#1 -152304 152828#0 -152932 152530#6 -152393#0 -152879#1 -153635 -152808#1 153248#1 -152530#6 152166#0 153007#1 -152670#1 -152608 -152216 153294#0 -152531#0 -152602#3 152487#5 152613 -152992#2 -152709 -152824 152658 153250#2 -152286 -152763#2 152343#0 152872 -153409#14 152583#3 -152935#4 -152810#9 -152937#0 -152663#4 152670#0 -152697#3 -153409#9 152785#4 -152895#0 152701#1 152942 153148#1 -152933#4 -152861 -152654#0 -152672#3 -153397 152146 152448 -152602#7 152578#0 152771#4 153221#4 153213#0 -152797 -152681#3 152879#2 152854 153517 153007#0 152398#1 -152879#2 153401#3 152793#0 153409#9 -152757 152451 -152937#1 153395#0 152314#3 153212#1 -152530#2 152992#3 153250#0 152812#0 -152384#0 -152819#1 153284#2 153295#0 -152832#5 -152764 152697#2 -153402#0 -153409#10 152821#1 -152983#1 -152602#8 153139#2 -153646 152648#0 152869#3 -152660#0 153125 153214 153264 152805 152884 152415#0 152995 153295#3 -152770 -152697#4 -152643#2 152385 152892 -152813#1 152645#3 152133#7 153275#1 -152945 -152131#0 152992#6 153304#2 152880#0 153515#1 -152656#1 152808#1 -152664#1 -152866#3 153306 152159#1 153107 -152660#6 152943 153216#3 152643#1 153112 -153437#2 152875#1 -152771#0 153137#0 152871#2 -153401#0 153245#0 153585 152149#0 152956#7 -152644#0 -152668#2 153409#15 152883#1 153269#0 152644#3 -152707#0 152158 152133#4 153617 -152644#1 -153550#3 152398#2 -152379#0 153110#0 -152662 152150#2 153245#2 153409#16 -152305 -152672#2 -152704#0 153492#3 152359#3 152799 153293#2 -152136 153287#0 152648#1 152935#5 -152602#4 152705#1 152992#2 152937#0 -152763#1 -152657 152542 -152897#1 153248#2 153581 152785#2 -152655 152531#6 -152659 152677 -152672#1 -153007#0 -152814#2 152586#1 152646#0 -153392#3 153111 153115 -153409#7 152135 152813#3 152602#7 152611#2 153283#1 -152501 152673#2 -152876#1 153392#3 152756 -152487#5 -152908#8 152707#0 -153327#0 152645#1 153333 152394#1 152610 152702#1 152817#1 -152394#4 152689#2 -152869#2 -152786 152665#0 153541#1 153409#4 -152799 -152796 152384#1 152376 -152690#1 152277 -152456 153221#5 -152832#3 152809 153442 152387 153096 152801#1 -152860 -152762#1 153400#1 153293#1 -152673#5 153197 153331#3 -152599 152785#0 152415#1 152572 152329 -152832#0 -152771#4 -152891#1 -153409#16 152266 152808#3 152828#5 -152387 152602#9 -152591#1 153547 152462#1 153229 -153376#3 -153401#1 -152956#10 152874 -152866#0 -152867 152955#5 152689#1 -152357 -152650#4 -152673#3 153246 152674 152965#2 -153440#3 152140 152156#0 153172 153297#0 153142 153222 -152778 -152780#1 -152668#1 -153555#3 153119 -152660#5 153392#1 -152768 152684#2 152814#3 152486 152133#6 152675 152955#1 152381 153199 152418#1 152466 153648 153162 -153409#6 153198#1 152992#5 -152653#2 153409#0 -152391 -152794 -152579#0 152585 152661 153105 153582 -152827#0 152280 152219 153210 153409#13 -152219 152644#5 -152217 152649 153402#2 152530#7 -152992#4 152314#4 -152285 152482 153277#0 -152804 -152869#0 -152597 152896#0 152458 152763#3 152937#4 152886 153401#1 152308#2 -152602#6 -152385 -152880#1 152828#6 153173 -152792#1 -152775 152971#2 153228 152600 -153376#2 -152689#1 -152866#2 -152166#1 -152663#9 -152643#0 -152882#0 153544#0 -152600 -152776 152377 153263 152605 -152828#2 -153370#11 152707#2 -152487#0 152810#6 152703#0 152785#1 -152664#0 -152417 -153440#2 153280 153370#10 152806#2 153392#4 152161#1 153167#0 -153002#0 152151#1 152170#1 -152823#0 -152793#1 -152817#2 153376#5 152487#0 153291#1 152858 153240 152602#8 152898#0 152294 152350#1 153245#1 152645#0 152964 152983#2 152155#3 -152226 152670#1 -152954 -152663#7 152394#3 -152379#1 -152382#3 152684#1 153544#1 -152583#0 152660#6 152287 152453#2 -152646#2 152499 152578#4 153243 153376#2 152597 152131#1 153194 152672#3 -152602#0 152314#1 -152810#1 -153331#3 153395#1 153513#4 153099#1 153191#0 152778 -152705#0 152156#4 -152672#0 152870#4 -152392#2 -152414 152530#4 152890#0 152262 -153487#0 152384#0 152293#1 -152645#4 152885 152934#0 152681#2 152468#0 152643#0 152654#1 152663#1 152978#0 -152883#1 -153394#1 152601#2 -152821#1 152286 152707#3 -153331#2 152653#2 -152646#1 152601#1 -152601#0 152450#3 152133#5 152814#0 -152394#3 -152785#1 152819#2 152956#10 152166#1 -152765 152643#2 152868 -152708 -152791#1 -152166#0 153288#0 152781#1 -153545#0 152812#4 152663#3 153221#6 153295#2 153295#1 -153004#7 153247#0 152644#4 152865 152357 153513#3 152880#1 152460 -152343#1 153152 -152689#0 152971#3 -152462#1 -153325#1 152877 152505#0 153287#1 -152609 153409#6 -152811 153227#0 152602#6 152668#1 153080 152152#1 152705#2 -152772 -152872 153476#7 153139#1 -152763#0 152984 -152758 152895#0 -152956#6 152666#1 153224#1 153592#0 -152690#0 153254#1 152763#0 -152650#3 152394#0 153279#0 -152782 152155#4 153277#1 152660#1 -152487#2 152870#5 -152678#2 152878 -153414 153278 -153552 152780#1 152656#1 -152787 -152763#3 152230 -152161#1 152457 152783#2 152653#0 -152759 153150#0 152417 -152864 -153401#2 153249#0 153213#1 152530#0 153550#2 153414 -153392#0 -152783#1 152823#0 152151#0 152651 152133#0 152664#1 152808#4 152761#1 -152888#0 -152808#2 153149#0 -152790 -152827#1 153550#1 152672#1 153267 -153433 152349#1 152660#2 152793#1 -153376#0 153216#2 -152294 -152382#0 152152#0 152664#2 -152601#1 153409#3 -152705#1 -152866#4 -152650#2 -152828#6 152875#0 152459#1 152832#2 -152707#3 -153325#3 -153435#0 152133#2 152650#3 -152827#2 152697#0 152825 152795 152932 152534#0 152149#4 -152828#5 152866#5 153226#1 152454#0 -152658 -152810#5"/>
    <!-- id="14" name="Roquebrune-Cap-Martin" -->
    <taz id="14" edges="153481#1 -152539 -153320 153321#2 153013 -152243 153084 153377#4 -153359#1 152989#0 152269 153015 -152488 -153367#0 153588 -153362#1 -153488 -152577#2 152583#2 153481#0 152210 153372 153564 -153365#1 153367#3 -152280 -152437#2 152205 152581#1 -153346 -152242 153343#1 -153321#2 152523 153488 -153363#0 153371 152550 153319#1 153093 153363#1 -153016 153551 153368#3 -153013 153348 152573#2 -153357#1 152968#2 -152333 153351#2 -152573#0 153339#2 -153322#3 -152578#0 153368#1 153356#1 152544 -152556 153481#2 153374#2 152561 153008#1 153623 -152279 152575#0 -152523 -153366#0 153351#3 -152331 153368#2 -152557 -153339#1 -153362#0 152508#4 -153356#0 152508#3 -153481#1 -153344#0 -153360#0 -152554#2 -153344#1 -152986 153322#3 153624#0 -153347 153344#0 -152547 -153319#4 153476#0 152575#1 -152240 153018 -153322#1 153345#1 152268 152303 -152968#0 153542 152547 152437#0 -153370#0 152332 -153339#0 153364#0 152330 153360#0 152508#1 -153476#1 152554#2 153369 152214 -152583#2 152573#0 152573#3 153365#1 152966#1 153088 -152332 -152554#1 152517 153529#3 -153487#3 152461#1 -152544 152437#1 -152575#0 -152577#3 -152575#1 152572 153543 153355#0 -153322#4 -153353#1 -152573#4 152554#1 152577#0 153083 153624#1 -152554#0 -153357#0 -153367#2 152573#1 153355#1 153358#1 -152244 -152161#0 152966#0 153345#3 -153367#1 153319#0 153353#0 -153377#5 -152583#3 153091#0 -153358#0 -153369 -152437#3 153091#1 153322#1 152469 152562#1 153351#1 153529#2 -152341#0 153476#3 153481#3 153363#0 -152215 153368#4 152574#1 -152437#1 -153351#3 153367#2 -153350#2 -153364#1 153234#1 -152209 152436#1 -153481#2 -152968#2 153347 -153551 -152559#1 -153354#1 153366#0 -152990#0 153353#1 152335 -152169 153231 153082#0 153087#1 152204 -152561 -152989#0 152337 153614#1 153504 -153052 153476#1 -153345#0 -153574#2 -152238 152990#2 152461#0 153377#1 152437#3 153010 153014#0 -153343#1 153370#0 153086#1 153343#2 -153363#1 152555 152189 152168 153232#0 153319#4 -152562#1 -152579#0 152585 152579#1 -153476#7 152558#1 153367#4 -153576 152512#0 -152141 153087#0 153350#0 -152579#1 152484 -153372 152280 -153355#0 152559#1 153374#1 153011 -152217 153377#3 153529#0 153345#4 -153374#0 -152562#0 153089 152577#2 153487#0 152516 152216 -152968#1 153232#1 152564 152541 153573 152560 -152548 153014#1 -153319#3 -152540 153344#1 152244 153476#6 153360#1 152968#0 -152554#6 153074 -153355#1 -153365#0 152341#0 152435 -153357#2 -153360#1 153367#0 153341 -153481#0 -152211 -152560 153359#3 153476#4 152556 -153345#1 -152953 152508#2 -153339#2 -152437#0 152552 -153542 153350#1 -152574#1 152235 153374#0 152557 153576 152581#2 -153377#2 -153015 153350#2 -152168 -152551 -152543 152559#0 -153476#0 -152435 153082#1 153320 -153572 152242 152515 -153368#0 -153321#1 -153014#1 -153374#2 153377#5 -153476#6 153092 152237 153574#2 152215 152554#5 153090#1 153012 -152577#0 152614#1 -153322#2 -152558#0 -153322#0 -152187 152554#3 -153319#2 153349 153351#4 -153574#1 153476#2 153345#2 153017 153481#4 -152546 -153359#2 152333 -152334 152254 152344 153319#3 153357#2 153339#1 152565 -152991 152579#0 153529#1 -152565 153365#0 153321#1 153085 152272 152342#1 152302#0 -153368#2 153090#0 153501#1 153590 -152461#0 153476#5 -152436#0 153086#0 -153014#0 152580 -153487#0 -152585 152553#1 153367#1 -153009 153354#1 -153359#0 -152553#0 153652 -152614#1 -153352 152255 153361#3 -153374#1 152989#1 153364#1 152341#1 -152554#3 -153476#3 -152522 152990#0 -152577#1 152513 -153361#4 152546 -152237 152540 -153377#0 153377#2 -153361#0 152346 153503 -153377#3 -153341 -152484 -153368#3 153346 -153321#0 -153366#1 153614#0 152545 153322#2 152522 153487#3 -152573#3 152543 -152336 -153345#4 152968#1 -153319#1 153235 -152212 -152989#1 -153014#2 -152553#1 -152214 153574#0 -152344 152243 -152573#2 152270 152558#0 -152580 -153351#1 152212 152512#1 -152552 -153351#2 -153074 153537 152554#6 152437#2 -153353#2 -153379#5 152991 -153343#2 -153476#4 153215 153476#7 -152558#1 -153358#1 -152235 -153010 -153339#3 -153476#5 153362#0 -153368#4 -153345#3 -152573#1 152436#0 152211 -153364#0 152986 -152216 153052 152169 153361#4 -152335 -152541 152279 153351#0 152571 153014#2 -153351#4 -153361#3 -152988 153056 -152241 153196 152302#1 153339#0 153358#0 152583#3 153016 153339#3 -152303 -153343#0 -153476#2 -152469 -152966#1 -153011 153377#0 -152554#5 152141 -153353#0 152514 152548 152577#1 -152571 153319#2 -152239 -153368#1 153344#2 153574#1 -153350#0 153359#2 -153350#1 152334 153357#0 -152436#1 153195 152578#0 -153319#0 -153367#4 152577#3 152239 153359#1 152273 -152966#0 -153345#2 152271 152539 -153344#2 153234#2 153600 152241 -152341#1 152990#1 -153351#0 -153018 -153481#4 -153481#3 -153349 -153361#1 152488 152577#5 153361#0 -153008#0 -152549 -152564 153359#0 -153573 -153056 153354#0 153342 -152461#1 153357#1 -153574#0 -153342 -153564 -152577#5 153345#0 -153017 -153348 -153377#4 152238 152573#4 153233 -152990#1 -153354#0 152549 153362#1 153343#0 153356#0 -153377#1 -152577#4 153322#4 153361#1 153502 153366#1 152562#0 153501#0 152217 152577#4 -153359#3 -153367#3 -153012 153353#2 153572 -152555 -153543 153192 -152559#0 152336 -152337"/>
    <!-- id="13" name="Beausoleil" -->