
<tazs> 
    <!-- id="33" name="gw33" -->
    <taz id="33" edges="152273 152272"/>
    <!-- id="45" name="gw45" -->
    <taz id="45" edges="153656 152554"/>
    <!-- id="34" name="gw34" -->
    <taz id="34" edges="152193 153346 -152543 -152547 153345 -152191 -153346 152543 152547 -153345"/>
    <!-- id="44" name="gw44" -->
    <taz id="44" edges="152574#1 -152574#1"/>
    <!-- id="43" name="gw43" -->
    <taz id="43" edges="-153436 153436"/>
    <!-- id="32" name="gw32" -->
    <taz id="32" edges="152525#0 152323#1"/>
    <!-- id="42" name="gw42" -->
    <taz id="42" edges="-153452#0 153452#0"/>
    <!-- id="41" name="gw41" -->
    <taz id="41" edges="-153460 153460"/>
    <!-- id="31" name="gw31" -->
    <taz id="31" edges="152193 -152191 -153478 153478"/>
    <!-- id="1" name="Monaco" -->
    <taz id="1" edges="-152792#0 153142 -152589 -152818#1 -152162 -152814#2 152677#0 153287#1 -152714 152814#7 153273#1 -152945#0 152801 152144 152941#1 -152397#0 152875#2 152380 152817#1 152896 -152805#0 153413#12 152505 152219 152295 152818#2 -152398#0 153413#14 -152707#0 -153401 -152422#0 -153414#1 -152949 152270 153554#2 -152873#1 -153398#0 152664#1 152462 -153008#7 152160#2 -152582#0 152814#6 153127 -152824#0 153107#0 153160 -152965#1 152857 -152941#1 -152996#7 152796#1 153099#0 -152391 153077 -152715 153380#1 153152#2 -152650#2 -152693#1 -152812#5 153404#1 153218 152996#5 -152191 152703 153252#0 -152706#2 -152386#3 -152651 152898#2 152647#2 -152836#2 153126#0 152606#6 153496#3 152814#1 -152887#1 152221 152783#1 152457#1 152792#0 153269 153293 153638 152882 -152698 -153551 153274#1 153413#10 -152787#0 -152308 152421 152454#1 153559#2 -152810#1 152667#7 152814#8 152383#1 153517#4 -152649#0 -152667#3 153512 152898#0 -152971#5 152982#4 152709#1 153398#1 152353#2 152653 -152899#0 -153549#2 153137 -152860 153204 152667#2 152974 -152608 153444#3 152160#3 -152459#0 153300 153652 152650#1 -152960#0 152667#5 152400 152649#5 153548#1 152762 153550 152595#1 152664#2 152888 -153398#1 152153#1 152157 -152654#2 -152960#10 -152815 -153413#4 152402#1 -152705#1 152831#0 152902#0 153119 -152457#1 -153549#1 -152703 -152799 153112 153517#3 152681 -153413#7 153267 153224#0 -152787#2 153295#0 152870#3 -152422#1 -153413#16 153249#1 152832#0 152423 153545#0 152159#0 -153380#4 152402#3 -153379 -153415#3 153616#1 152486 153270#1 -152389 -152711#0 152535#6 152661 153511#1 -152606#5 -152676#2 -152664#0 152582#4 152892#1 153254#0 -152867 153406#2 152158#0 152455 -152219 -152830#2 -153554#0 152789#0 152602 152318#2 -152663 -152535#2 -152398#1 -152397#1 152170#0 -152832#2 -152997 153231#1 -152587#3 152382 152402#2 152814#11 153549#1 153414#0 -152534#0 152170#1 153170 -152859 152827#1 152396#1 -152681 153521 -152776 153274#4 152831#1 153107#1 152969#0 152889 153559#4 -152361 -152607 -152812#3 -152384 -152870#1 -153650 152456#0 152664#6 153105 -152902#0 -153559#4 -152761 152894#0 153152#0 153249#0 152513#0 153413#4 153225#1 -152140 152397#1 152660#1 -152871 152604 152715 152935 -152593 153216#0 -152786 152297#0 152821#2 153596#0 -152983 152828 153413#9 152875#0 153254#1 -152888 152816#3 -153560 -152397#2 153258#0 -152649#1 -152664#4 -152701#2 153116 153153#0 -152657#2 152874#1 153291#0 153225#4 153554#3 152298 -152697 152353#4 -152870#2 153443 152946 153518 153614 -152766#1 -152777 152827#0 -152890 -152892#0 153596#1 -152668#2 -152169 152398#0 153413#7 152607 -153329#3 152299 -152880#0 -152677#5 152767#2 -152270 -152226 -152870#3 -152828 -152333 -153405#0 -152457#0 -152789#3 -152966#0 153179#2 153216#1 153589 -152772 153279#0 152677#1 152817#2 -152299 -152388#1 -152939#2 152666 -152513#1 152654#3 153415#1 -152133#0 -152654#3 -152816#3 -152768 -152960#2 153254#4 -152712 -152170#0 153396#2 -152886#0 153296#2 -152818#2 152858 152711#0 -152836#1 -152807 152816#0 153305 152284 153232 152649#0 152452 -152472#1 -152582#4 -152685#0 -152667#1 153645 153310 153615 152320 153331#1 -152223 -152579#0 153117 -152948#1 152941#4 -152880#2 152832#4 -152464 152965#1 153080 153118#1 152667#9 -152652#0 -152174#0 -152898#2 152491#2 -152878 -152960#1 152459#0 152463#0 -152513#0 152704 152830#2 152945#1 153085 153107#2 -153413#15 -152960#7 -152699 -152667#8 152677#3 152398#2 -152648#2 153136 153138 153220#4 152396#2 152868 152672#2 -152606#3 152938#1 -153405#3 152676#2 -152670#0 -153413#9 -152960#6 153154#0 152947 -152170#1 152648#6 -152174#1 -153554#2 -152674#0 152701#1 -153553 152766#1 -152605#0 -152364 153227#1 -152451 153272 -152937#4 -152381 153229 -152694#1 -152892#1 152960#5 152472#1 -152857 153588 -152534#6 152786 152816#1 152364 -152875#1 152787#0 152895#2 152317 -153396#4 152696 153294 152648#0 152160#0 152814#4 -152650#1 152711#2 152863 -152816#1 152817#0 -152937#2 152153#5 -152460 152386#3 152650#0 152685#3 -152605#1 -152794 152535#0 -152987#0 153405#2 -152420 153320#0 152457#0 152702#0 152996#8 153545#1 153258#1 -152676#3 -152887#0 152402#0 153552#3 152688#1 152767#1 152862 152864 153517#0 -153413#3 152899#0 -152793 -152606#6 152988 152535#2 153151 153513#1 152982#0 152836#0 152959#2 153513#0 152701#0 152899#1 -153406#0 152648#1 152832#6 152615#2 152765#1 152895#0 -152664#2 -152667#6 153413#16 153103#0 153158#1 153548#2 -152709#0 153230#2 -152883#0 153399#0 152706#3 152811 152491#0 152879#0 152875#1 152899#2 -152462 153549#0 152398#3 152383#0 152705#1 152652#1 152832#5 -152818#3 153254#3 153335#1 -153444#2 153511#2 153175 -152609 152713 152391 -152654#0 152796#0 153158#0 -152587#2 -152455 152887#2 -153413#11 -152688#0 -152810#0 152649#4 152775#5 153292#0 -152670#1 152900#0 152491#1 -152582#3 153251#1 152761 -153273#2 -153396#1 153406#1 152333 -152535#0 -152987#1 153648 152648#4 152466#1 -152941#0 152873#0 -153491#0 153283#1 152649#3 -152610 -152821#2 152879#1 -152832#3 -152880#1 152805#1 -152534#7 153380#5 152616 152784#1 153279#1 152776 152887#1 -152667#10 -152832#1 152866 152778 -152711#1 152674#1 152679 152758 152798 152939#2 152386#1 153414#1 153439#2 153288#0 -152868 -152996#3 152816#4 152705#0 -152831#2 153126#2 153374#10 152388#0 153081 -152877 152694#1 153418 152594 -152821#1 -152781 -152688#1 153006#0 -152889 153297#0 -153639 -152775#0 152159#5 -152672#1 153308#1 -152938#1 152775#2 -152775#3 -152808 153301#0 153248#2 152780 -153329#1 -152814#8 153126#1 153179#4 152650#2 -153380#3 152659 153337 152611#0 153290 153444#4 -152934 153011#1 152706#2 153398#2 153380#3 152943#1 153299#0 -152988 -152582#1 153146 153331#0 -152309 152154#2 153396#1 153329#2 153306 153283#0 152658#1 -152650#0 152156#2 -152763 152876 152768 -152667#4 152759 -152884#0 -152770 -152216 153595 -152459#1 -152387 152612 153178 152878 152535#4 153413#15 152936 -152709#2 -152491#1 152353#1 152667#6 152823#1 152880#2 -152804 -152648#1 152785#0 152150 152289 152308 -152780 152836#1 153106 153228#1 -152606#1 152960#4 -152805#2 152646 -152801 152818#3 -152534#4 -152802 152677#2 152806 153517#2 -152229 152601 -152711#2 153329#0 -152701#0 152281 152617 153413#13 -152535#6 152606#3 -153404#1 153304 152716 152793 153133 152403 152158#1 153244 -152821#0 152593 152587#3 152160#1 -153405#2 152175 153607 153215 152805#0 -152706#3 -152813 152647#1 152816#5 152678 -152463#1 -152788 153329#1 -152969#1 152971#4 -152604 -152135#0 152816#2 -152809 152654#0 153380#0 153099#1 -152671 152802 152389 152676#1 152671 -152960#5 152583#0 -152823#0 152941#2 -152814#5 152535#1 -153413#0 153225#2 -152647#2 152937#0 152797#0 -152775#2 153221#1 152960#8 152714 -152491#0 152784#0 -152814#0 -152947 152587#0 -152789#0 152159#4 -152937#1 153549#2 152584 152163#0 152812#2 152969#3 -152165#0 152765#0 152590#2 152673 152615#0 153413#5 152807 152613 -153476#0 -152677#1 -152900#0 152960#1 152886#1 153396#4 -152941#2 -152812#2 -153413#14 152799 152948#1 153247 153205 152938#0 -152139 152996#4 152216 153143#1 153559#3 -152778 153439#0 -152708#0 152662 152606#2 152975#3 152670#3 -152491#2 152161#1 -152958 152865 152293 -152677#2 152654#2 152363#3 152996#7 -152284 153295#1 152667#8 -152881 152669#1 -152823#2 152582#0 152497 152388#1 152871 -152937#0 152937#2 153114#1 -152418 -152667#5 152698 -152398#4 152648#5 152874#0 152309 152975#4 -152803 152836#2 -152647#0 153008#6 153103#1 152832#1 -152812#1 152973 152503 153271 152354#0 -152939#1 152814#0 152709#2 152900#1 152942 153245 -152996#4 153273#0 152701#4 152605#2 153214 152137#1 -152783#1 152534#6 152167 -152660#0 152137#7 152819 -152790 152154#1 153398#0 152693#0 153559#1 152466#0 -152674#1 153415#3 152670#2 152137#2 -152664#5 152682#1 -152710 -152685#3 -152827#1 -152816#2 152960#7 -152825#1 -152658#1 -152709#1 -152648#3 153413#6 153414#2 153008#7 152800 -152810#2 -152486 152682#2 152939#5 -153273#0 152223 -153398#2 153491#0 152812#4 -152347#0 152606#7 153587 153287#2 -152667#9 152787#2 -152491#5 152969#1 -153554#1 -152221 -152590#2 -153380#2 153179#3 -152865 -153406#2 152969#2 152649#2 152996#6 152155#1 -152657#1 152808 152397#2 153335#4 152771 -153380#1 152872 153114#0 -152685#2 -152969#2 152668#1 152934 153654 -152665 -152817#0 152418 152779 -152969#3 153335#2 152265 -152901#1 -153406#1 152767#3 153129 153179#1 -153404#0 152664#4 152291 153616#0 152818#1 153274#2 152708#1 -152858 153225#5 -152883#1 153155 -152948#0 -152693#2 152350 152608 -152659 -152660#1 152229 153217#0 152163#1 -152606#9 152153#0 153159 -152769 153156 153552#2 153250 -153396#0 152664#5 152160#4 -152876 153225#6 152701#3 153335#3 -152664#6 153298#1 -152705#0 153172 152832#3 152998 153153#1 -152864 -152832#6 153166 -152706#1 153167 -152383#1 153413#1 -152230 153548#0 152300 -152583#0 -152939#0 -153413#13 152153#2 152534#0 -152538#1 152823#2 153288#1 -152386#1 152461 153281#1 152712 153011#0 -152941#3 -153559#0 153118#0 -152900#1 152138 152873#1 -152713 153152#1 153179#0 -152814#10 152318#1 152509#0 -152505 -152319 -152966#1 -152649#5 -153374#12 152785#2 153302#1 153298#2 152701#5 152606#8 153302#0 153275 -152648#0 152153#4 153111 -152912#8 152814#5 152795#1 -152670#2 153590 152286 153220#1 152312#0 -152779 -152787#1 152297#0-AddedOffRampEdge -152678 -152165#1 -152658#0 153110 153586 -152796#1 152814#9 153551 152349 153226 152509#1 -153648 152874#2 -152298 -152679 152347#1 153233 -152601 152873#2 -152716 152459#1 -152817#1 153639 -152870#0 153284 -152711#3 152193 -153335#3 -152388#0 152683 153121 152873#3 152760 -152534#2 -152234 -152789#2 153609#0 152789#3 152165#1 152817#3 153100 153198 153273#2 152989 152812#5 152363#2 -152827#0 152982#1 152789#2 152296 152883#1 152836#4 152949 153301#1 152156#0 -152677#3 152959#5 -152538#0 152159#2 152419#1 -153400 -152615#1 153171#0 152590#1 153399#1 152767#0 153413#3 152832#2 153655 -153548#1 152901#1 153201 -152587#1 152312#1 -152938#0 153228#2 152266 -152291 152859 152966#0 -152811 -153559#2 153171#1 -152885 152206 -152814#3 -152583#1 -152534#5 153285 -152305 153292#1 152665 152763 153413#0 152825#1 152869 152814#2 -152605#2 152684 -152989 -152819 -153414#2 152657#2 152224 153176 152890 -153374#10 -152649#2 152775#0 153161#0 -153415#1 -153399#0 -152590#0 152706#0 153223 -152611#0 152576 -152832#4 152361 -152590#1 153511#0 -153413#8 153252#2 152699 152874#5 152959#4 152606#9 -153273#1 152381 152702#1 152996#3 153552#0 152693#2 -152830#1 -152701#5 152587#2 152458#0 152137#3 -152758 152490 -152466#1 -152693#0 -152606#4 152676#4 152867 -153418 -152774 152823#0 -152767#1 152987#0 152697 -152898#1 -152971#4 -152293 152422#0 -152669#1 152139 152668#0 -152960#4 -153554#3 153113 153158#2 153195#0 152938#2 153553 153375 152538#1 152775#3 152230 153297#1 -153004 -153413#6 153248#0 -152349 153299#1 153169 153520 -153413#1 152941#3 -152814#9 152781 152456#1 -152866 -152886#1 -152940 -152452 152542 153004 153606 152654#4 153437 153585 153444#5 152510 -152767#0 153248#1 152347#0 152706#1 152937#1 -152664#1 -152466#0 152664#3 153231#0 153398#3 152711#1 152648#2 -152615#2 -152175 153609#1 -152395 -153337 -152708#1 152772 -152676#0 -152701#4 152787#1 153141#0 152959#3 153274#3 152583#1 -153413#10 -153558 -152782 -153550 152311 -152694#0 -152664#3 153157 153380#2 152870#2 -152468 152603 152965#0 -152696 -152999 152454#2 -152396#1 -153549#0 153177 153405#1 152538#0 153164 153405#3 -153399#1 153231#2 153228#0 152491#5 152162 153308#0 153621 152789#4 -152684 152937#4 152422#1 -152817#2 153296#1 153122#1 152782 -152224 153203 -152682#2 -152792#1 153252#1 -152987#2 -152167 -152824#1 153141#1 152677#4 -153331#0 152132 -152937#3 -152135#1 152824#1 152880#1 152814#10 -153414#0 -152960#3 153161#1 152534#2 152305 -152398#2 -152421 152966#1 153202#1 -152667#2 -152775#5 152667#4 -152300 152789#1 153406#0 153554#0 153274#0 -152836#5 -153556 152137#4 152657#0 -152648#5 152997 153134 -153439#2 152884#0 -152677#0 152886#0 -153405#1 152668#2 152821#0 152395 152823#3 153230#3 152169 -152816#0 152975#2 -152883#2 152609 152809 -152702#1 -152669#0 -152380 152582#2 152797#1 -152163#0 -152582#2 152614 -152836#4 -153335#4 152282 -153011#0 152135#0 152813 153288#2 -153415#0 152688#0 -152706#0 152155#0 152271 -152682#1 -153638 -153398#3 152420 152824#0 152777 152174#1 152585#2 153224#1 -152789#1 152606#0 152770 -152873#2 153650 152660#0 152883#2 -152657#0 152685#2 153143#0 152513#1 152472#0 -152386#2 152651 -152762 152657#1 152810#1 -152996#2 -152612 -152945#1 -152797#1 -152861 153140 153291#2 152670#1 152463#1 152960#3 -152132 152836#5 -152969#0 152384 152677#5 152155#2 153320#1 152464 -152773 152805#2 152385 153101 153413#8 152398#1 152670#0 -152869 153282 -152899#1 152686 152693#1 153268 -152648#6 152606#4 -152814#4 -152832#5 152959#1 -152789#4 -152960#8 152534#4 153374#11 152870#1 152458#1 -152398#3 153249#2 -152898#0 153517#1 -152875#0 152234 152670#4 -152797#0 152292 152870#0 153083 152836#3 153400 -152817#3 152674#0 -152783#0 -152795#1 -152882 153150#0 -152220 152885 -152887#2 -152945#2 152534#5 152353#3 -152825#0 -152806 153220#0 -152996#8 -152535#1 152810#0 152829 -152396#2 152701#2 -152383#0 -152472#0 152174#0 152826 152458#3 152398#4 -152798 -152830#0 153163 153640 153308#2 153493 -152648#4 152468 152220 152458#2 153415#2 153197 153084 153413#11 -152606#8 -152884#1 152451 -152614 -152767#3 -152385 153649#0 152773 153148 -152289 153415#0 152791 153554#1 152983 -152814#11 -152812#4 153143#2 152134 153139 -152688#2 152498 152971#5 153651 152287 152676#0 -152655 -152831#0 152672#1 152948#0 153613 153649#1 152774 -152967 152363#1 152945#2 153075 -152654#4 152363#0 152534#7 152676#3 152312#2 153217#1 153396#0 153286 152814#3 -152453 152883#0 153591 153253#1 153122#0 153230#0 153224#3 152454#3 152874#4 152457#2 152290 -152939#4 -152831#1 152159#3 152387 152667#10 152836#6 153287#0 -152686 152658#0 152982#2 152664#0 -152647#1 -152662 152470 152881 152480 152982#3 152960#10 153446 -152606#0 -153008#6 152663 152171 -153413#5 -152654#1 152898#1 152711#3 153329#3 152654#1 -153396#2 -152463#0 152386#0 152996#2 152546 152792#1 152785#1 -153649#1 -152617 -152613 -152814#6 -152784#1 153230#1 152884#1 153221#0 153130 -152896 153296#0 152877 -152347#1 152939#1 153224#2 152667#11 152710 -152784#0 -153480#7 -152996#6 152783#0 -152546 -152894#1 152582#3 152831#2 153220#2 152655 153646 -152701#1 -152814#7 152354#1 152159#1 -152895#0 -152870#4 -152873#0 -152939#5 -152668#1 -152836#0 -153011#1 -153329#2 -153437 -152646 152579#0 -152649#3 152999 153162 152312#3 -153413#12 153225#3 152870#4 -152602 -152616 -152673 -152812#0 -152704 152812#1 152870#5 -152767#2 152968 -153444#3 -152938#2 152707#0 -152457#2 152775#4 152137#5 152944#0 152669#0 152647#0 -153548#2 152803 -152672#2 -152683 -152668#0 -153335#2 153565#0 -153439#0 153298#0 -152836#6 -153380#0 153617 152297#1 153165 152153#3 -152702#0 -153006#0 -153559#1 -152823#3 153225#0 152514 153227#0 152156#1 -152163#1 152419#0 -153559#3 -152470 -152796#0 152821#1 153109 153123 152605#1 -152760 152585#1 153560 -153640 -152965#0 152582#1 153291#1 -152800 153626 -152818#0 -152653 153299#2 -152661 -152676#4 152941#0 -152996#5 -152894#0 -153374#11 -152836#3 153149 -152863 152460 -152895#1 153299#3 -152542 152589 152649#1 152386#2 152610 -152936 152318#4 153131 152944#1 152606#5 152137#0 -152701#3 152652#0 152453 -152206 -152603 -152814#1 153519#1 153401 153220#3 152874#3 -152670#3 152606#1 -152667#7 153253#0 -152805#1 -152677#4 152648#3 152960#2 -152873#3 -152823#1 -152791 152860 -152816#4 153115 152794 -153548#0 152707#1 152939#4 153552#1 152491#3 152940 -152606#2 152319 152894#1 152688#2 -152666 -153331#1 152766#0 -152386#0 152615#1 152137#6 153281#0 -152606#7 152830#1 153128#1 153396#3 152987#2 -153441#2 153513#2 153297#2 -152649#4 -153415#2 152943#0 -153335#1 153289 -152766#0 -153396#3 152397#0 -152676#1 153195#1 153405#0 152820 152667#1 152987#1 153653 152945#0 153480#7 152975#1 153098#0 -152615#0 -152400 152810#2 -152535#4 -152584 153270#0 153154#1 153280 153556 152960#6 153438 -152491#3 152825#0 153150#1 152667#3 -152872 152812#3 -152290 -152595#1 153379 152454#4 152318#3 152944#2 -152775#4 152587#1 -152670#4 -152134 153254#2 152818#0 -153649#0 153251#0 152937#3 152154#0 -153329#0 -152832#0 -153444#4 -152354#0 -152480 152135#1 -152292 153380#4 152967 -152587#0 153076 -152971#0"/>
    <!-- id="14" name="Roquebrune-Cap-Martin" -->
    <taz id="14" edges="-152341 152173 -153355#3 -153361#1 -152589 -153326#2 153323#3 153089 153365#3 -153018#1 152516#1 152585#2 -152970#0 -152551 153325#1 153095#1 -152337 -153357#2 153366#0 -152562#1 152521 153547 -152345#0 -153480#5 -152215 152516#0 -153480#3 153361#2 -152558#3 152581#5 -152348 153372#4 -152581#0 153533#2 -153383#5 -152243 152566#0 152219 -152581#3 153371#2 153485#1 -152560 153368#0 153371#0 -153355#4 153578#2 -153362#0 152994#2 -153381#1 152350 153618#1 153360#0 153533#0 153485#2 -153326#3 152283 -153345 153555 -152557#1 -153366#1 -152582#0 153091#1 -152994#1 -153326#0 153505#1 -152335 152242 -152577#2 152473 -153365#0 -152558#5 153353 152553 153355#2 152258 153343#3 -153349#0 153374#0 152564 -152618#1 -152191 152248 153369#0 153350 -153325#2 -152587#2 152348 153086#1 153012#1 152563#1 152239 152272 -153349#2 -152340 152544 -152558#1 -153359#1 -153347#0 -153357#1 152441#0 152995 -152558#6 152972#1 153092 153326#4 153235 -152239 153507 153365#1 -152559 -152583#0 -153325#0 152221 152990 152492 -153491#0 153022 153349#1 153323#2 -152545 -153363#0 -153372#1 152214 152334 -152220 -153366#0 153019 153505#0 -152970#1 -153346 -153347#1 -152558#0 152575 153367#1 -153348#1 152245 -153016 -153378#1 153364#1 152208 153017 152512#3 -152440#1 -152547 153363#1 -153369#1 153015 -153323#1 152970#0 -153568 153196 152441#1 153238#2 152306#1 -153381#2 153239 -153381#0 -153480#1 153546 -152990 152569 -152563#0 152306#0 152273 -153371#0 -153363#2 153355#1 153354#0 -153374#0 153508 -153370#0 153343#1 -152439 -152245 152220 152465#0 -153365#1 -153361#0 -153349#3 -153354#2 153086#0 152172 153200 152441#3 152581#1 -153018#2 152339 153480#2 -152213 -153381#3 153020 152345#0 152581#3 -153580 -153357#0 -153485#3 -153355#2 -153363#3 153016 152972#0 -153576 152307 -153015 153371#3 153365#0 -153361#2 153485#0 -152577#0 152545 152548 153358#0 152209 -153364#1 -153323#3 153491#3 -153323#4 153097 152193 -153017 -153555 152338 153347#1 153093 -153018#0 153323#4 153580 -153363#1 -152577#3 -153020 -152577#4 152559 152577#1 153354#1 153094#0 152215 -153367#0 152519 -152219 -152307 153372#3 -152216 152247 152345#1 152618#1 153480#3 153381#5 153372#1 153060 152526 -153364#0 -152247 153056 -152465#0 -153022 153343#0 153506 153199 -153376 153346 152440#1 153363#0 153568 -153060 152520 152274 -152587#3 152341 -152579#1 -152338 -153378#0 -153349#4 153370#0 -152488 153324 153237 152994#1 -152248 -152581#4 -152583#1 -153343#2 153485#4 -153480#0 152560 152581#0 153378#1 -153012#0 -152563#1 152527 153090#0 152246 152554 -153480#7 -152544 153376 -152441#1 -152241 -153371#2 152241 -152555 -153546 -153360#0 152145 153480#5 -152565 153355#0 -153485#4 152518 153368#1 -152972#0 153357#1 -153358#1 153381#3 152587#3 153381#0 153578#0 -153326#4 152337 152576 152218 152579#0 152972#2 153236#0 -153350 -153343#3 152970#1 152488 -153371#1 153618#0 -152564 152551 152581#2 153370#1 -152465#1 -152246 152243 -153480#4 153592 -153354#1 152512#2 153236#1 153078 -152575 -152145 153091#0 -152543 152517 152587#2 153381#2 153360#1 153480#0 153326#1 153372#2 153361#1 -153378#2 -153578#2 153361#0 152583#0 -152995 -153348#0 153604 153326#3 153354#2 -153013 -153369#0 153363#3 -152218 -153368#0 153359#1 -153480#2 152994#0 -153354#0 153348#2 -152558#2 152577#0 153375 -152550 -152568 152562#0 153378#0 152558#6 -152972#2 -153352 152566#1 -153343#1 -153021 152440#0 152584 152581#4 152276 -152165#0 153365#4 153014 -152992 -153547 152585#1 153357#2 -153078 -153356 153364#0 153345 153628#0 -153381#5 152561 -153355#0 -153353 152562#1 152577#2 153094#1 -152581#5 153480#4 -153372#3 152558#3 152577#4 152579#1 152216 153323#1 153485#3 153238#1 153347#0 153627 152558#2 152568 -152957 -153325#1 153352 152589 152441#2 153541 153021 -153373 153359#0 -152173 -153365#3 152284 -152345#1 153378#2 -152284 152583#1 -152972#1 -153370#1 153366#1 152993#1 152582#0 -152579#0 153219 153355#4 -153367#1 152512#4 153373 153326#2 -152994#0 153349#3 153656 -153381#4 -152440#0 153362#1 -152562#0 153362#0 -153347#2 153533#3 -153372#4 153351 152556 152512#1 153371#1 152558#1 152558#5 -152569 -153362#1 -153492 153381#4 -152577#1 153347#2 152439 -153368#1 153087 -152581#1 -153491#3 -153056 153018#0 153480#1 153088 -152552 152275 153095#0 153349#4 -152557#0 153371#4 -152553 -153578#1 -152527 153363#2 152552 153090#1 -153323#2 -152561 -152993#1 -152578#1 -153323#0 153349#0 153355#3 -153019 153369#1 -153578#0 152259 -153351 -153014 152543 -153365#4 152550 153628#1 -153371#4 -153324 -153349#1 153018#2 152549 -152492 -153348#2 -152336 153577 -152473 153381#1 153480#7 -153372#0 152277 153096 -152172 -153485#2 153323#0 153578#1 -153343#0 -152581#2 -153371#3 -152556 153358#1 -152441#2 -153485#1 -153359#0 -152584 152563#0 -153485#0 152346#1 -152441#0 152557#1 -152339 153349#2 153492 153491#0 -153480#6 -152526 152340 152547 -153577 -152566#1 153018#1 153357#0 153367#0 -152548 -152566#0 -152221 -152993#0 -153358#0 152336 152577#3 153325#2 153343#2 153480#6 -152283 152578#1 -153355#1 -153372#2 -152441#3 -152244 153576 152993#0 153348#0 152465#1 153348#1 153533#1 152565 -153326#1 153594 -152242"/>
    <!-- id="13" name="Beausoleil" -->