
<tazs> 
    <!-- id="33" name="gw33" -->
    <taz id="33" edges="152274 152273"/>
    <!-- id="45" name="gw45" -->
    <taz id="45" edges="152556 153658"/>
    <!-- id="34" name="gw34" -->
    <taz id="34" edges="-153348 152549 -152549 153347 -152545 -152192 152194 153348 -153347 152545"/>
    <!-- id="44" name="gw44" -->
    <taz id="44" edges="-152576#1 152576#1"/>
    <!-- id="43" name="gw43" -->
    <taz id="43" edges="-153438 153438"/>
    <!-- id="32" name="gw32" -->
    <taz id="32" edges="152527#0 152324#1"/>
    <!-- id="42" name="gw42" -->
    <taz id="42" edges="-153454#0 153454#0"/>
    <!-- id="41" name="gw41" -->
    <taz id="41" edges="-153462 153462"/>
    <!-- id="31" name="gw31" -->
    <taz id="31" edges="152194 -152192 153480 -153480"/>
    <!-- id="1" name="Monaco" -->
    <taz id="1" edges="152703#2 153274 -153398#1 152399#0 152894#1 152298#1 -152649#2 152516 152399#2 -152163 -152838#0 -153558 152493#3 153562 -153381 152297 152354#2 153611#0 -152789#2 152608#3 153337#4 152456#3 -152290 -153561#4 152704#1 -152710#1 -152885#2 -152662#0 152385 -152657 153552 152650#2 152703#3 153232#2 -152703#1 -152192 152678#3 152661 152892 -152224 -153415#13 152540#0 -152650#6 -152791#4 -152794#0 -152998#3 -153415#12 153547#0 152266 -153556#3 152584#1 153382#5 -152320 -152708#1 152160#5 153079 -153556#2 -152894#1 153256#0 152805 152791#2 152977#3 153446#5 153522 -153555 153199 -152171#1 -152589#3 152354#1 153554#0 152163 -152362 152650#1 152885#1 153169 153296 -152591 -152537#1 153550#1 153400#2 152615 -152679#0 152157#2 152940#1 -152862 152536#4 -152703#2 -152678#3 152797#1 -153415#7 152460#0 152653 152687#2 152468#1 -152540#0 152940#0 153376#11 -152812#1 -152292 152151 152679#4 -152166#1 152156#0 -152398#0 153656 -152306 -152888#1 -152772 152812#2 -152615 153231 -153400#3 -152136#0 152470 -152943#2 152941#2 -152455 153181#2 152876#5 152699 152891 152881#0 153415#1 -152669#5 152589#0 -152834#3 152672#4 -152825#3 152944 152777#0 153561#2 -152785#0 152819#2 -152820#0 153493#0 -152804 -152998#6 -152537#2 153407#0 152468#0 153556#0 -152998#8 152864 152838#3 152777#4 -152829#0 152902#0 152319#4 153295 153114 152403#1 -152962#4 153154#0 152829#0 152707#1 152421#0 -152608#5 152162#1 -152537#0 152789#1 -152990 153010#7 -152348#0 152537#0 -152832#0 -152779 153219#0 152985 -152666#5 -152819#0 -152649#0 152711#2 -152686 152937 152425 153398#1 153227#3 152613#0 152662#0 152827#1 -152818#1 153513#1 152608#5 152796 152271 -152825#2 -152397#2 -152971#2 -152423 -152653 -152612 -152777#0 152650#4 -152695#1 152809 153254#0 -152890 -152938 -152422 153181#0 153272#1 -152962#1 152769#3 152877#0 153156#1 -152651#1 152971#0 152382 -152809 152321 152704#0 152507 152310 152404 152618 152879 -152690#1 -153400#0 -152683 152769#2 153289#1 152493#5 153589 -152703#5 -153651#1 -152820#4 152976 152293 153200 153276#1 -152661 -153552 -153275#2 152398#0 152403#0 152818#5 -152897#1 -152834#4 153415#3 153651#1 -152650#4 -152586 152813 153008#0 -152940#1 152901#1 -152676#0 152136#1 -153652 -152870 152878 -152962#5 152951 -152701 153303#0 153415#16 153120#1 -152819#1 152825#2 153555 -152672#2 152819#0 153135 -152679#1 -152696#0 152666#5 152678#1 152872#2 153551#1 -152902#0 -152991 -152665 -152971#1 153232#3 152801 152355#1 -153337#3 152816#2 -152764 152154#2 -153333#1 153275#0 153608 152544 152675 -152537#4 153301#2 153217 152698 152901#2 152272 152168 -152617#0 153283#1 -152947#1 152962#6 -152684#2 -152838#2 -152671#1 -152962#0 -153415#9 152700 152306 153102 -152384#1 152716 -153337#2 152977#2 153230#0 153337#2 -152461#1 -152584#1 -152941#0 152820#2 152459#1 152537#4 152586 153415#0 152875#3 152713#1 -152791#2 153550#2 -153331#1 152962#5 152536#2 152962#4 -152225 -152655 -153651#0 152901#0 -152896#1 -152783 152779 153293#1 152388 153222#1 -152387#2 -152962#3 152784 152715 -152399#1 -153376#12 153276#3 -152650#5 152782 153322#0 152650#3 152135 152170 152607#1 -152493#1 152681 153255#0 153271 -152482 152772 153415#9 -152962#8 -153415#15 -152802 152816#5 153642 152941#1 153331#1 152777#2 152298#0 152669#7 153218#1 -152936 -152816#8 153292 152650#0 152176 -152474#0 -152348#1 -152709#0 -153415#14 153598#1 -152651#4 152825#3 152818#4 153251#1 -152399#3 152768#1 153109#2 153415#13 152397#2 153111 152608#1 152313#2 -152493#5 -152690#2 -152785#1 -153439 -152875#2 153647 -152453 -152861 153619 -152819#3 152971#3 152977#4 152674#1 -152789#0 -152825#0 152820#3 152465#1 152814#4 -152388 152608#7 152875#2 -153415#3 -152807#1 152459#2 153155#1 152900#0 152947#2 -153443#2 -152796 152655 153302 152155#1 -152387#0 -152652#0 152703#1 152764 -152816#4 152673 152672#2 -152301 -152814#4 -153401#1 152903#1 -152607#2 152816#10 152770 152789#2 152947#1 152154#1 152990 -152679#2 152816#7 153139 -152669#4 -152799#1 153144 153252 152139 -152589#1 152898 -152943#0 -152176 -153013#1 153270 -152536#2 152793 -152293 153100#0 152540#1 -152690#0 152670#2 152695#0 152888#1 153417#1 -152597#1 -153417#0 152159#1 152319#2 152939#1 -152791#1 152225 -152610 152355#0 -152607#0 -153415#8 152589#2 153290#0 153222#2 153567#0 153260#0 -152892 152656#2 -152679#4 153297#1 153206 152584#0 -153382#1 -152805 -152947#2 -152334 152492 -152613#0 152606 -153010#6 153077 152592#2 152654#0 -153415#11 153417#3 153109#0 152967#1 -152885#1 153294#1 -153561#0 -152868 -153641 152399#4 -152812#2 152474#0 152961#5 152791#3 -152715 -152776 153554#1 152807#0 -152695#2 152690#1 153400#3 153611#1 152874 -152465#1 -152680 153495 -152762 -152684#1 153273 -152672#0 152156#1 152392 -152664 153113 -152687#3 153256#1 -152659#0 -152673 153143#1 -152790 -153417#2 -152871 152298#0-AddedOffRampEdge 152714 153138 -152493#3 -152614 -153337#4 153220 152537#1 152312 153269 152676#0 152231 152138#0 152294 153229#1 153593 152967#0 152869 152718 152871 152678#4 153086 -152605 153167 152885#0 153287 153256#4 152656#4 152823#1 152880 153222#0 152807#1 153417#0 153117 -153275#0 -152880 153519#1 -153420 152608#0 -152679#3 152584#3 152827#0 153415#6 -152399#4 -152707#0 -152818#4 152816#11 -152619 153174 152536#0 -152678#0 152688 153233#2 153171 -152207 153446#3 152776 152608#4 -152814#1 152823#2 152941#5 -153008#0 153406#1 -152875#0 -153561#2 -152834#5 153415#4 153407#3 -152676#1 -152832#1 152785#1 152680 152668 -152659#1 152283 -152669#2 153197#0 152610 153515#2 153381 152833#1 152810 153382#4 152814#1 152812#0 152597#1 -152960 152649#0 152605 153281#0 -152889#0 152651#5 152619 153304#0 -152217 152998#2 152873 -152711#1 -152678#2 -152815 152710#1 152881#1 152686 152670#0 152465#0 152422 152834#5 153230#2 152713#2 153300#0 152456#1 152950#0 152423 152969 152461#0 153227#1 -153407#1 152666#2 153010#6 -152768#1 153101#0 153445 152711#1 153233#0 -152608#9 153498#3 -152663 152939#4 152669#6 -152660#1 153651#0 -152872#2 152161#2 -152973#5 152962#7 -152399#2 153284 153229#0 152690#0 -152604 152812#1 152973#4 153218#0 -152770 152459#0 -152466 152896#0 153304#1 -152592#0 152816#6 -153408#0 152364#1 -152817 -152827#0 152818#0 152943#2 -152656#0 153407#2 152650#6 -153415#16 153246 153588 153283#0 -152611 152829#1 152998#4 -152608#2 -152971#3 152701 152875#0 -152488 -152998#7 -153376#10 152160#3 -152164#0 152578 -152713#2 -152898 152834#2 -152608#3 153132 152820#4 152536#6 152584#2 152962#10 153301#0 153227#6 152943#4 152399#3 152585#1 -152803 -152914#8 -153642 -152816#3 -152816#9 152883 -152608#7 153226#0 -152962#2 153254#1 152157#1 -152819#2 -152901#0 152703#5 152175#1 152652#0 152671#1 -152687#2 152707#0 -152603 -152973#0 -152387#3 153124#1 -152786#0 -152814#0 152777#5 152943#0 152713#3 152708#3 152617#1 -152470 153161 153083 -152609 -152798#0 152390 -152671#0 152319#3 153103 153615 152656#1 -152698 152463 -152950#1 -152667 153013#0 152399#1 152656#0 -153408#2 152807#2 -152585#0 -152666#1 -152998#4 152220 153160#1 152684#1 153618#1 152989#1 -153415#0 152876#0 152659#0 153376#10 153226#2 153136 153640 152581#0 152608#6 -152585#1 -152795 153286 153331#3 152831 153219#1 152171#0 152672#1 -153551#1 153254#2 -152666#6 152608#2 153561#3 153641 152998#8 -152830 153000 153143#0 152659#2 152780 153299#2 152614 153551#0 -152985 -152700 152696#1 152998#5 152799#0 152791#1 -152717 -152688 153408#0 -153560 153408#1 153253#0 -152617#1 152708#0 152799#1 152397#0 -152818#3 153153 -153382#4 152669#4 152882#2 153628 153152#0 -152778 152695#1 -152651#3 152984#3 152679#0 152940#2 152285 -152656#2 152678#2 152819#1 152651#3 152695#2 152787#0 152537#6 152669#1 -152939#1 152791#4 -152669#1 153448 -153416#0 153108 153154#1 152651#2 152511#0 152765 152587#2 152876#4 152961#4 152654#1 152656#3 152787#1 -152679#5 152703#0 -153415#10 153441#2 152679#1 153162 -152800 153119 -152592#2 152795 153298#2 153587 152194 152172 152875#1 153550#0 153415#5 153251#2 152942 152160#0 152684#2 153441#0 152666#3 -152829#1 153312 -152666#2 152991 -152823#1 152161#3 153256#3 -152716 152666#4 -153561#3 153439 152709#0 152649#1 152354#4 152889#2 153128#0 152888#0 -152941#1 153519#3 153556#1 -152873 152299 152973#5 -152666#0 152387#0 -152271 -152816#0 153654 152604 -152713#3 152838#1 -152792 152364#0 -152801 152865 152453 -152695#0 -152879 -153275#1 -152650#2 153653 152961#1 152670#1 153398#3 153160#0 152136#0 152660#0 153129 -153550#2 -153376#11 -152650#3 -152584#0 -152798#1 152386 152977#1 -152462 -152941#5 153128#1 152592#1 152900#1 -152947#0 -152713#0 152301 153165 -152141 152825#0 152420 153232#0 153181#1 152826#1 152896#1 153377 -153398#3 152970 -152493#2 -152962#10 152207 152589#3 -153006 -153551#2 -153640 -153551#0 -152399#0 -153398#2 153623 -152939#4 152138#4 152962#8 153181#4 152664 -152669#9 152818#2 152821 153310#2 152138#3 -152765 153109#1 152769#1 153141 153598#0 -152943#3 153514 -152650#0 -152886#1 152175#0 -152777#3 152267 -153337#1 153168 152296 -152708#2 -152468#1 -152465#0 -152875#1 -152894#0 -152607#1 -153331#3 152537#2 -152797#1 -152651#2 153382#3 153251#0 -153556#1 152949 152154#5 152666#6 153276#4 152157#0 -152962#7 153101#1 152989#0 153618#0 -152962#6 153597 -152816#10 -152834#1 152493#2 -152355#0 152595 -152807#0 -152457 -152814#5 -153382#2 153151 152384#1 -152136#1 153398#4 -152656#3 153301#3 -153446#4 152403#2 152651#4 153521#1 -152164#1 152155#2 152222 -153403 153416#0 152665 -152507 152834#0 -153407#0 153255#1 -152820#3 153249 152288 152387#1 -152760 152685 152687#3 152936 152300 -152468#0 152971#2 -152650#1 -152703#0 -152833#0 -153400#2 152825#1 -152834#0 152984#0 -152424#0 -152656#1 152457 153401#1 153133 -153400#1 153446#4 152838#5 -152389#1 -152648 153275#1 -152814#3 152362 152424#1 -153478#0 -152666#4 152669#11 152860 -152967#1 153382#0 -152788 153648 152224 -152291 -152816#7 -152799#0 153482#7 152786#0 152460#1 152612 152387#3 152282 153130#1 -152608#8 153250#0 152334 152832#1 152652#1 152663 152705 153112 153107 -152820#1 153415#11 -152998#5 152589#1 -152838#3 152834#3 152717 -153415#1 -153416#2 152389#1 153655 -152791#0 153382#1 -152536#5 153513#2 -152784 -152616 152313#3 152708#1 -152459#0 152971#1 152587#1 152548 -152672#4 153222#4 153650 152984#2 -152939#3 152161#1 152662#1 -152687#0 152791#0 153331#0 -152903#1 -152884 153150 152387#2 -152706 153398#0 152669#10 -153417#3 -152540#1 152650#5 -152816#11 -152705 -153331#0 152781 152396 153157 152313#1 152383 152458#0 152862 153013#1 152818#3 153553 152767#0 152999 153339 -152651#5 152608#8 -152827#1 -152949 -153482#7 152816#3 152512 -152309 -153010#7 -152670#0 152515#0 -152493#0 -152235 -153402 152493#1 -152515#1 -152135 152872#4 152762 -153407#3 -152231 153078 153277 152887 -152814#2 152823#0 153148 152962#3 153145#2 -152901#1 -152710#0 152348#0 -152222 -152889#2 -152398#1 153181#3 153420 153281#1 152160#1 152154#4 153082 153177 -152860 152455 153173#0 -152940#2 -152652#2 153617 153402 152760 -152712 -152951 152679#5 -152454 152291 152460#3 152962#2 152160#2 153204#1 152159#0 152794#0 153285#1 -152807#2 -153561#1 -152769#1 153609 152968#0 -152872#4 -152660#0 152945#1 152671#0 153164 152950#1 152814#3 153116#0 -152672#1 152364#2 -153562 153087 152948 152603 152886#1 152803 -152669#10 153085 153155#0 152669#2 -152584#4 -152897#0 153556#3 152783 152769#0 152221 152666#0 -152140 -152396 -152989#2 152403#3 152660#1 -152703#4 152962#1 152499 -152708#0 152230 -152939#0 152667 153227#4 -152863 153276#0 -152769#3 153275#2 152968#1 152460#2 152833#0 -152821 -152872#1 152138#6 -152968#0 -152699 152939#0 -152662#1 152591 153120#0 153172 153523 153105#0 153227#2 -152592#1 153519#4 -152608#6 152145 152649#2 152773 152816#9 -152793 -152838#6 -152886#0 -152865 -152940#0 152651#0 153331#2 152816#8 -152967#0 153417#2 -152654#0 153256#2 153382#2 -152939#2 152160#4 152287 153222#3 -152874 -152649#1 152672#3 153128#2 -152826#0 152679#2 153415#10 152488 153616 152608#9 -152548 152814#2 152421#1 -152133 -152711#2 -153415#6 -152704#1 153163#1 -152771 152674#2 -152869 153293#0 152868 153163#0 -152459#1 152348#1 153180 152309 -152891 153337#1 152828 152939#3 153115 153303#1 152822 153125 153226#1 -153550#0 152456#2 153400#1 153105#1 -152382 -152777#2 152939#2 152775 153415#7 -152794#1 153131 152989#2 153250#2 -152424#1 -153415#5 -152674#1 152651#1 152975 152171#1 152885#2 -152668 -152768#0 152536#5 153156#0 153515#1 153310#0 152708#2 -152943#1 -153446#2 152877#2 153592 152884 152816#1 152788 152761 -152866 -153553 152365 152876#2 152164#0 -152968#1 152943#3 152424#0 -152134#0 152804 152872#3 -152285 152832#2 152472 152669#8 153401#0 152657 152155#0 -152786#1 152318 153166 -152816#1 152493#0 -152384#0 153276#2 153554#3 -152461#0 -152877#1 152585#0 152458#1 -152713#1 -152780 153400#0 -152763 -152900#0 152235 -152536#0 152138#1 -152472 153297#0 152319#1 152676#1 -152882#2 153416#1 -152882#0 -152711#0 -152675 152789#0 153299#1 153173#1 -152401 -152170 -152838#5 153250#1 153118 -152708#3 153403 152941#4 152154#3 152354#3 -153406#0 -152806 -153417#1 153124#0 152904#0 -152820#2 152156#2 153519#2 -152606 -152887 152712 -153401#0 -152666#3 152138#7 -153333#0 152900#2 -152777#4 -152536#4 152945#0 152861 -152707#1 -152989#0 153226#3 -152973#4 152785#0 153558 152397#1 -152877#0 152814#5 152998#6 152669#9 152398#1 -152659#2 -153331#2 152787#2 152389#0 152133 152808 -152300 152474#1 152706 152768#0 152678#0 -153013#0 -152816#5 153300#1 153554#2 152292 153333#0 -152823#0 152998#3 152816#4 152834#1 -153398#4 -152387#1 153223#1 152834#4 153294#0 152350 -152777#5 -152299 153308 152683 153282 152820#1 152998#7 153551#2 -152669#7 -152581#0 -152617#2 -152681 152820#0 153415#14 152830 152872#0 153205 -152834#6 153289#0 152669#3 -152834#2 -153556#0 152767#1 153197#1 153515#0 152536#7 -152672#3 152870 152838#2 153288 152777#3 153416#2 153333#1 153513#0 152381 152794#1 -152769#2 -152782 152648 -153001 152947#0 153179 153520 153223#0 152161#0 -152703#3 -152791#3 152798#0 -152365 152961#3 152313#0 153561#4 -152718 152596 153298#0 152877#1 152709#1 -152544 152505 -152816#2 152798#1 153160#2 152867 -152885#0 153140 -152536#6 -152390 152943#1 153145#1 -152685 152802 -152833#2 152511#1 152217 -152900#1 153408#2 -153339 152826#0 -152608#0 -152838#1 -152386 153657 152984#1 -152608#1 152607#2 -152397#0 153216 -152875#3 152398#2 -152656#4 -152595 -153441#2 152815 -152651#0 -152811 153561#1 -152398#2 153253#1 153306 -152584#2 -152230 152703#4 -152220 -152818#2 -152941#2 -152678#1 152320 152401 -152789#1 -152989#1 -153398#0 153142 153415#15 153158 152652#2 -152826#1 152833#2 -153493#0 -153382#0 -152589#0 153415#12 152679#3 -152168 153152#1 152384#0 -152999 -152896#0 152466 -152882#1 152872#5 152138#5 152461#1 -153408#1 -152704#0 -152823#2 152617#0 153591 152838#0 -152883 152938 152882#1 152351 152364#3 152690#2 152786#1 152816#0 -152678#4 153121 153203 153440 152140 -152902#1 153547#1 -152420 153398#2 152838#4 153235 152659#1 -152464 152838#6 -153416#1 152834#6 153159 152866 153519#0 -152813 -152942 -152515#0 -152175#0 -152832#2 152616 152961#2 -152769#0 152872#1 -152714 152666#1 -152774 152166#1 -152888#0 -152818#0 152617#2 -152825#1 -153406#1 -152608#4 153154#2 152164#1 -152397#1 152902#1 152669#5 -152294 -152950#0 152154#0 153232#1 -152872#3 -152459#2 -153407#2 -152859 152454 152859 -152392 -152537#6 -152171#0 -153441#0 -152838#4 -152669#8 -152618 153415#8 -152889#1 153006 152984#4 152890 153301#1 -152221 152886#0 153272#0 -152878 152897#2 152819#3 -153650 -152652#1 -152381 -152385 -153382#3 152946#1 152584#4 -152971#0 -152584#3 -152166#0 152889#1 152462 152290 152774 -152998#2 153234 153298#1 153227#5 152818#1 153299#0 -152812#0 153556#2 153228 -152808 153145#0 153225 153260#1 -152810 -152227 153178 153590 -152969 152763 152800 153207 -152669#6 152672#0 153290#1 153293#2 153001 152876#3 153337#3 152464 -153550#1 -152941#4 152611 -153446#3 -152816#6 153652 -152389#0 152713#0 152811 153407#1 -152536#7 152158 152609 -152775 -152589#2 153290#2 152778 153310#1 -152904#0 153289#2 -152670#2 153300#2 152138#2 152456#4 -152670#1 -152872#0 -152833#1 -152310 152876#1 -152867 -152350 153291 -152781 -152669#3 152482 153123 153116#1 152515#1 153247 153307 -152696#1 -153415#4 152500 152897#0 -152674#2 -152900#2 -152175#1 153322#1 -152474#1 152946#2 152161#4"/>
    <!-- id="14" name="Roquebrune-Cap-Martin" -->
    <taz id="14" edges="152529 -153374#3 153240#1 -153368#0 152581#1 -153325#0 -152620#1 153345#0 -152972#1 -153368#1 -153359#0 153359#2 152559#1 153093#0 152560#6 153372#0 -152442#0 152248 153383#4 153370#0 -153363#0 153362#0 -152579#3 153238#0 -152560#3 152589#2 -152974#2 153238#1 153548 -153371#0 153356#1 153629 153345#3 153361#0 152992 -153482#6 152584#0 153360#0 152579#2 152996#1 152995#0 153325#3 153020#1 153328#4 152475 -152550 -152192 -153357#0 -152564#0 153596 -153365#2 153373#1 -153487#0 152560#2 -153482#5 -153365#1 153325#1 152520 153019 153014#1 153482#1 152579#1 -152579#1 -153325#3 -152285 -152247 153091 -153366#1 153507#0 -152336 153345#1 152549 152564#1 -152560#6 153383#5 153350#1 153355 -152584#0 -152467#1 -152554 153364#0 -153348 152307#0 -153373#2 153096#0 153369#0 153357#2 153371#0 -153380#0 -152337 -152589#3 -153570 153359#0 153482#3 -153022 -152972#0 152974#2 -152559#0 -152557 153362#1 153093#1 152568#1 -153328#4 152585#0 -153328#1 153058 153377 152974#1 -153020#1 153351#2 -153383#0 152589#3 153326 153579 152521 -152591 -153080 152260 -152996#1 153357#0 153371#1 153620#0 153482#6 -153373#4 152442#1 -153351#0 153092#1 -152560#1 -153353 153090 -152338 -152997 153325#0 153482#4 -152467#0 -152583#0 153383#3 153487#0 -152959 153578 -152173 -152995#1 153350#2 152335 -153350#0 -152248 153351#0 152583#1 153378 -153327#2 -153360#0 -152567 -153383#1 -153363#2 153018 152579#4 -152442#1 153367#4 153630#1 -152529 -153356#1 153582 153580#2 -152244 -153327#1 -153345#0 -153487#1 153365#0 152259 152996#0 153543 -153367#4 -153374#0 153095 153493#0 153353 153354 153366#0 152307#1 153021 153374#4 152215 153367#3 153557 -153579 153367#0 153487#4 -153017 153024 152579#0 -153376#0 152467#0 152443#1 152565#0 -153354 -153349#2 152243 152275 153549 152518#0 152349 153364#1 152339 -153374#4 -152441 -152577 152222 -153058 153352 153328#2 153380#2 -152245 -153372#1 152284 -153549 -152547 152556 153366#1 -152566 -153357#1 153372#1 152564#0 153508 153630#0 -152579#2 152974#0 -152583#2 152996#2 -153365#0 -152146 153356#2 -153358 -152581#0 152563 -152341 -152560#2 -153373#1 -153364#0 153016 -153351#1 152442#0 -152563 153088#1 -152217 152565#1 -153355 -152243 -153018 153375 -153061#1 -152308 -153356#2 153022 152247 -152579#0 153363#0 153327#1 -153347 -153019 152174 -152553 -153349#0 -153351#4 152583#3 -153360#1 -152246 152523 153482#7 -152571 153373#2 153094 -153367#1 152443#2 -152992 -152568#0 152580#1 153658 152560#5 152209 152552 -153578 -153482#2 -153383#3 -153328#0 152547 152555 -153548 -153351#3 153365#2 -152570 -153326 152583#5 153096#1 -153325#1 -152349 152561 152997 -152560#5 153349#2 -153015 153237 153360#1 152514#1 153594 153482#5 152568#0 -152581#1 -153378 -152219 153349#0 153368#1 153487#1 -153367#3 -153482#4 153620#1 -152586 -152242 -152174 -153580#0 152217 153365#3 -153380#1 -153580#1 -152528 152587#1 152560#3 -152560#0 152277 152146 153239 153359#1 153221 152995#1 153080 153380#1 153089 -153021 153580#0 -153385#5 -152583#5 -153482#3 152514#3 -153357#4 152528 153482#2 153383#1 153017 153328#1 153367#1 153201 -152583#3 -152995#0 153020#2 -153362#0 -152443#3 -153369#1 -153487#2 152578 153357#3 153580#1 152338 153535#1 -152974#0 -152220 153493#3 -152994 152570 -152340 152583#2 -152284 -153383#5 152246 152585#1 -152475 -153482#7 153097#0 -152583#1 152550 -153359#1 -153493#0 152972#1 153351#1 152308 153380#0 153535#0 -152562 -153487#3 -153494 -153361#0 152274 153510 153348 -152494 153373#0 -153482#0 -152555 -153371#1 152216 -153023 153098 152514#2 152441 152519 152586 -152222 -152565#1 152346#1 152173 -152240 -153345#2 153374#1 153327#2 -153356#0 -153350#1 152351 -153350#2 152242 152577 153202 153345#2 153349#1 153023 -153582 152347#1 152546 153487#3 -152490 153365#1 152522 152240 -152216 -153352 -153364#1 -152580#1 152514#4 -152996#0 -152249 153357#4 153373#4 153376#0 152571 153383#0 153606 -153580#2 -153383#4 153363#1 -153020#2 -153374#2 -152443#1 -153349#1 -152585#0 152219 -153020#0 152276 152620#1 153369#1 153509 -153493#3 152220 152244 -153372#0 152560#1 -153367#0 -152214 153325#4 -153328#3 153062 -152565#0 -152342 153507#1 152581#0 153020#0 153092#0 -152585#1 153241 -153325#4 153373#3 -153374#1 -153366#0 -153345#1 152221 -152549 153374#2 153347 152545 153535#2 152494 152579#3 -152221 152249 152566 -152545 153328#3 152337 -152583#4 153240#2 -153361#1 152210 -152546 -152166#0 -152339 152278 -152558 152591 -153557 -152346#1 153351#3 -152568#1 -152346#0 152285 152340 -153327#0 153494 -153016 -153487#4 152551 153325#2 -152579#4 153099 -152974#1 153363#2 -152564#1 153088#0 153487#2 152567 -153357#2 152490 152562 -153370#0 152972#0 152273 -153373#3 152553 -153062 -152559#1 -153359#2 -153375 -153363#1 152342 152587#2 -152552 -153482#1 152583#4 153097#1 153351#4 153356#0 153370#1 153383#2 -153014#0 -152589#2 153357#1 -153383#2 -153351#2 152583#0 -153365#3 153361#1 152194 153482#0 152443#3 153570 152558 -153370#1 153350#0 153368#0 -152443#0 152554 153198 153374#3 -153357#3 152341 152467#1 152518#1 152346#0 -152561 -153369#0 -153373#0 -153328#2 -153345#3 -153380#2 -153325#2 -153024 152443#0 153535#3 -152443#2"/>
    <!-- id="13" name="Beausoleil" -->