
<tazs> 
    <!-- id="33" name="gw33" -->
    <taz id="33" edges="13342 13343"/>
    <!-- id="45" name="gw45" -->
    <taz id="45" edges="13626 14732"/>
    <!-- id="34" name="gw34" -->
    <taz id="34" edges="14419 13615 -14419 13619 -14420 13233#1 -13615 14420 -13619 13242"/>
    <!-- id="44" name="gw44" -->
    <taz id="44" edges="13646#1 -13646#1"/>
    <!-- id="43" name="gw43" -->
    <taz id="43" edges="14510 -14510"/>
    <!-- id="32" name="gw32" -->
    <taz id="32" edges="13597#0 13394#1"/>
    <!-- id="42" name="gw42" -->
    <taz id="42" edges="14526#0 -14526#0"/>
    <!-- id="41" name="gw41" -->
    <taz id="41" edges="-14534 14534"/>
    <!-- id="31" name="gw31" -->
    <taz id="31" edges="14552 13250#1 13251 -14552"/>
    <!-- id="1" name="Monaco" -->
    <taz id="1" edges="14520 14149 13606#7 -13187#0 -13787 -13760#0 14019#0 -14022#2 14358 -14487#0 14454#0 -13900 14012#0 14034#8 -13966#1 13729#0 -13739#8 -14409#1 13530#0 14592#1 -14634#1 -13749#5 14062 -14034#2 -13685 13388 -13783#0 13189#3 13886#4 14472#2 -14478#1 -13841 13959#2 14697 13744#2 -13742#3 14365#1 13434#0 14292 13766#1 14014 -13838#1 -13659#1 13683#0 13902#1 13957 14731 13833 -13459#1 14200#1 13222#1 -13777#1 -14011#1 13777#1 -13678#0 -13687#0 -13904#1 14299#6 -14045#0 13654#3 13890#1 13908#2 -13610#0 14327#0 14323#2 13882#2 -14474 14237 13721#0 13184 -13860 13726#1 -13679 -13959#0 -13855#0 -13469#1 13736#4 -13739#10 -13781#0 -13743 13687#2 14299#1 -14034#10 13654#4 -13607#4 -13418#1 -13656 13726#3 13458 -13217#0 -13933 -13971#0 -13720#5 14222 13654#2 -13861#2 -13538#1 -13654#1 -13952#1 -13853 -13654#2 -13838#0 14251 13213#1 -13184 -13849 -14489#3 14246 -13534 -13655#0 13742#2 13219 13291 13467#0 13527 13741#1 -13884#3 14019#1 14070#8 -13899#0 -13868#1 -13944 14724 13368 14049#3 14228#1 -14071 14692#1 13749#4 13739#3 14595 13942#0 14470#4 13748#0 14322#2 13471 -13864#0 14080#0 14210 -13840 -13886#2 13424#2 13196 14061#2 -13532 14454#1 -13276 13190 14192#0 14200#2 -13776 13852 -14070#2 -13214 14223 -13425#0 14253#2 -13678#1 -14034#1 13187#0 13459#1 -13736#0 -13851 13452 -13765#1 -13494#0 -14070#6 13678#7 14034#10 -13735 14588#0 -13525 14328#1 14305#2 14384 -13886#0 -13897#1 -13718 -14487#14 14200#0 -14070#7 -13662#1 -14013#1 -13845 14184 -13903#2 -14554#7 13929 14299#4 -13734 13947#2 -13420 -14714 13736#3 14187 14480#0 -13770 -13739#1 13454#1 13930 -13877#1 13651#0 14353#1 13654#1 13676 14177#1 -14040#1 13720#6 14479#0 14362#0 14061#0 13336 13722#1 14241 13684 14729 -13529#1 14181#2 14588#2 -13729#2 14300 -13783#3 13383#0 13859#2 13784 -13956#0 14667 -13469#2 13834 13689 13352 13881 -14403#0 -13375 -14624#0 13955#1 13748#3 14278 13721#1 14714 13469#4 13904#5 -13684 13950 -13780#0 -14479#0 14235#0 14188#1 14203 13743 -13607#0 -13457#3 13866 13217#1 14689 14624#2 -14487#13 14010#1 14020 -14629#3 13208#0 14594#1 -14726 13757#2 -13749#3 14298#1 13424#3 13495 13962 -14641#0 -13186 13737 13286 -13468#1 14034#7 13739#11 -13726#0 14302#0 13889#3 14487#13 13942#5 13904#1 13942#1 -14043#3 -13748#3 -13748#1 14361#0 -13606#6 13859#1 -13966#0 -13893#0 -13739#5 -13886#3 14364 14365#0 13832 -13967#0 14215#0 13686 -14624#3 -13865 14487#0 14355#0 14488#1 13211#5 13365#0 13210#0 14243 13654#0 -13682 14157 14154 -13742#4 14411 -14448#10 -13457#0 13850 13897#0 -13435 -14039#1 -14013#4 14629#0 -14487#15 14175 -14019#2 -14409#3 13494#0 14304#2 14294#2 13972#1 13729#1 13212#3 -14045#5 14018#0 14448#11 14480#1 13870 -13739#9 13434#3 -13882#1 14487#6 13435 13886#5 -14628 13953 -13469#3 14207 14672#1 -13864#1 13421 14305#0 -13940 13473#3 13736#6 13861#0 14332#0 -13732#1 14671 13854 13739#5 -13888#3 13607#6 -13877#0 14470#0 13857#1 -13858 13777#2 14224#1 -14724 14620#1 14070#2 -13492 -13886#4 13839#0 -13774#0 13757#3 14070#6 -13970#2 14685#0 -13354 13739#10 13847#0 13434#1 13367#1 13719#0 14322#0 -13886#9 13958#1 -14453 14715 14253#3 -14078 14409#1 -13888#1 -13774#1 -13908#0 -13675 -14470#1 -13563#2 13453 13899#0 -13722#1 13960 13731 -13739#4 13205#4 -13766#0 -14448#11 14328#3 13726#2 -13456 13888#2 13524 13884#3 -13720#3 -14633 -13861#4 -13748#0 -14409#2 13679 -13964#0 14626 13739#2 14033#4 -13883 13971#1 13951#1 -13878 14592#3 -13746#1 14511 -13935 -13748#4 13886#11 -14513#0 14325#0 13902#2 -13834 -14070#4 -13957 -14011#2 13739#8 -13286 14214 -13738 13468#0 14348#4 13959#1 13968 14345 14015#2 -13740#0 14363 14326#0 13855#1 13890#2 14238 -13895#1 14016 -14061#1 13861#4 13946#0 13869#0 13908#1 -14034#6 13961 13367#0-AddedOffRampEdge -13876 -14045#4 13739#9 13890#4 -14475 -13563#0 13946#3 13606#2 -13458 -14034#5 13884#1 -13881 14299#5 14012#3 -13404 13742#0 13391 13404 13868#1 -13185#0 -13839#0 14294#0 -13903#0 14018#2 13207#1 14403#1 14159 13868#0 -14472#0 14454#4 -14623#2 14488#2 -14022#0 -14480#0 -13724#0 14487#7 13526#2 14372#0 14690 -13552 14041 14180 14473#1 13375 13535#1 -13494#1 -13862 13736#2 13662#2 13777#0 -13884#2 13882#1 13221 -13945#2 -14070#3 -13888#2 13205#1 -13847#5 14365#2 13783#3 -13889#3 14475 14370#1 -13291 -13720#1 13469#3 -13678#4 13730#0 -13293 13942#2 14078 13678#2 13733 -13886#10 14625 13469#2 14061#1 13931 13525 13886#2 -13765#0 13945#0 13778#3 -14061#2 -13686 13457#0 13882#0 -14518#3 -14480#2 -14488#1 14015#4 -13888#0 -14043#1 13473#1 -13721#4 -13890#4 13665 14685#1 13949 14010#4 13765#0 -13949 -13662#0 13460 13886#7 14487#10 13585#0 -13877#2 -13750 13189#2 -13771 14373#2 -13606#2 13678#3 13365#1 -14550#0 13720#4 -13683#0 13531#1 13677#1 -13908#3 13885 -13847#3 13735 14623#2 14349 14691 13657#1 13749#2 13839#2 14208 -13947#0 14373#3 14487#15 -13852 13494#1 -13788 14245#1 -13889#0 13467#1 14487#11 13432 14683 14213 13491#0 13908#4 -13689 13739#7 13895#1 -13749#2 14360 -13222#1 -14487#12 -13726#1 13847#3 14291#0 13851 14405#1 -13727 -13720#2 -14470#4 -14057 -14009 14344#1 14085#0 14380 -13956#1 13951#0 13948 13189#0 13189#6 13677#2 13293 -14034#4 14370#2 13845 -13869#1 14177#0 -13863 14405#0 13418#0 13607#0 14355#1 -13730#1 -13777#0 14019#2 13904#6 -13677#1 14240 13857#0 13863 13581#1 -13959#2 14289 13861#2 13908#0 13843 13740#1 13720#2 14665 14158 -13370 -13678#2 13726#4 13864#1 14181#0 13749#3 13890#3 -13847#0 14047 14722 14236#0 -13469#0 13847#5 14624#3 14082#7 -13678#3 -13535#1 14034#5 -14479#1 14073 14325#1 14489#0 -13889#2 13457#1 13276 13530#1 13765#1 13900 14588#1 13935 13367#0 13457#2 13493 13563#5 -13769 -13866 13724#1 -13462 14489#2 -13903#1 14348#0 13760#0 14592#2 14294#3 14307 -13659#0 13956#1 14224#0 13212#2 14371#1 -13777#2 14197 14072 13300 13952#1 -13749#0 -14013#0 13908#3 14634#4 13847#4 -13756 14011#2 -13742#0 13552 -14015#2 14252 14328#0 -13967#1 13871 13529#1 -13736#3 -13942#1 -13369 13973#1 13359 -13740#2 14196#1 14236#1 -13938 -13871 -13786#2 13748#2 -13742#2 14487#3 13946#5 -13379 13945#2 13655#0 13544#0 -14039#0 13864#0 14196#0 13418#1 14332#1 14661 14071 14226#0 13779#1 13212#4 14382#0 -13970#0 -14405#0 14056#0 14010#0 13674 13853 -13454#0 -13364 13742#4 13250#1 13606#5 13294 14298#0 14294#4 13462 13467#2 13886#10 -13721#3 13838#0 -13952#2 14151 13607#4 13340 14472#0 13208#2 14232#1 14328#4 14017#1 13867#1 -13773#1 14624#0 13207#2 13890#0 -13884#5 -14454#3 -13681 14033#1 -13786#1 13360 -13908#1 13459#0 13839#3 -14487#10 13563#3 14034#3 -13677#2 14056#3 13719#1 -14515#2 -13493 13937 13865 -13585#1 -13733 -14014 14449#2 13877#0 13886#0 -13222#0 13756 13758 -13459#0 13778#1 -13939 -13563#5 14368 -14624#2 -13785 -13659#3 14070#5 14341 -13726#3 13856#0 -13962 13837#0 14057 14301#0 -13361 -13749#1 -13848 -13736#4 14662 -14487#9 -14487#4 -13874 14663 -14010#3 -14479#3 13211#1 14039#0 14204 -13577 14448#10 -14623#1 14487#5 14173#0 14702 13682 -13842 14211 -13902#1 13383#1 -13607#2 13563#0 13732#1 13211#0 13786#1 -13973#1 13191 13781#1 14322#1 14045#4 14070#4 13835 13569 -13904#3 -13363 14730 -14623#0 -13221 14347#1 -13931 14726 -14634#2 14324 13585#1 13903#2 14304#0 13760#1 -14063 14015#0 13678#1 -14013#2 -13833 13290 -13884#1 13770 -13942#4 14378 13473#2 13542 13607#2 -14034#8 13370 -13861#1 13896#1 13785 -13868#0 14682 13721#4 -13780#1 14201 14297 -14070#5 -13741#1 14013#1 14629#1 13861#3 13205#0 14586#2 14217#2 -13908#2 14318 -13719#1 14011#0 -13869#0 -13368 13242 -13970#1 -13886#8 13888#3 14043#1 14232#0 13889#2 -13783#1 14454#3 -13971#1 13606#4 -13294 13530#2 13781#2 14043#3 -14403#2 -13466 13720#5 14172#0 14173#1 -14041 -13380 -14070#8 13847#2 14295#1 -13726#2 -14347#0 -13766#1 14666 -13954 -14043#4 -13757#0 13730#1 13523 -14454#4 14205 13719#2 13886#8 13908#6 13528#0 -13859#2 -13721#0 14049#1 14627#2 13971#0 14366#1 -13773#0 14033#5 -13688 -13678#8 13888#4 13222#0 -13778#0 -13846 -13654#4 13895#0 13389#1 -13432 -14015#3 -13340 -13390 -14021 14454#2 14487#1 13662#1 -14470#0 14326#1 13215#1 -14518#4 13886#6 14191 14299#2 -13886#7 14479#1 13726#0 13857#2 13659#1 13904#0 14375#0 -13942#2 13967#2 -13296 -13778#1 -13889#1 13848 14347#2 -13850 13536 13904#4 14596 -13755 -13972#0 13838#1 14033#2 13721#2 14303 14362#2 -14082#6 -13457#2 -14716 -13215#0 -13937 14323#1 14366#0 -13739#3 14641#0 -13739#6 13687#1 14040#0 13675 13889#1 -13959#1 13533 13205#2 14394#0 -13563#3 -13673 -13606#0 14070#7 14234 13678#5 -14032 -13880 13773#3 -13895#2 -14010#1 13888#5 -14725#0 13558 13729#2 14181#1 13252 13837#1 14288 13206#2 13972#0 -13304 -13942#0 -14473#1 -13451 13745 -13490 13351 13383#3 14369#0 -13219 14034#4 14155 -13607#6 14253#4 13742#1 13946#1 13942#4 -13760#1 14023 14634#2 13886#1 13211#4 -13902#0 14048 14379 -13943 -13960 -13457#1 14359 13721#5 13678#8 13741#0 13491#1 13455 13788 -13887 13720#1 14193 -13723 13563#1 14306 13895#3 -13729#1 -14624#1 -13544#0 13582 13830 13896#0 13424#1 -13667#1 -14470#3 14215#1 -14015#0 14233 -14448#12 14033#3 14513#0 -13719#2 14056#2 -14472#3 -14347#1 -13948 14217#0 13454#0 13886#3 -13839#1 -13687#2 13688 14235#1 13736#5 14348#3 14624#1 14409#3 14188#0 13210#1 -14565#0 13873 -14023 13720#3 -13930 -13950 -13861#3 13755 -13678#9 13941 13945#1 13209 13531#0 -14513#2 -14473#0 -13782 13363 -13942#3 -13720#4 -13899#1 13749#1 13787 13369 13208#1 -14626 13678#4 13648 -13736#2 13974#0 13891 13526#4 13610#1 -13961 14022#0 13379 14013#4 -13855#1 13776 -13740#1 -13744#1 -13856#0 13734 -13890#2 -14085#0 14185 13581#0 -13972#1 -13896#1 -13945#0 13215#0 14376#0 14518#3 13656 14056#4 13666 -13896#0 13879 14488#0 14018#1 14010#2 13723 14470#2 13526#1 14179 13947#0 -14085#1 -14478#0 13721#3 13964#1 14518#5 13681 14373#1 13970#2 -13610#1 13749#0 -13781#1 -13778#2 -13460 14512 14229 13749#5 14370#0 -13722#0 -13964#1 13893#0 13606#0 13718 -13968 14517 14346 -13542 13831 13903#1 13538#0 -14007 -14347#2 -13884#4 13189#1 -13945#3 -14487#1 13939 -13847#2 14290#1 13223 -13861#0 13211#3 13739#1 13746#1 -13678#6 -13523 -13527 -13758 -13945#1 -13662#2 14195 13469#1 14228#0 -13768 -13773#5 14007 13680 13886#9 -13941 13849 13955#0 -13535#0 -13955#2 14250 13335 -13531#1 14009 14049#4 14150 14226#2 13842 -14629#1 13769 14376#1 14409#4 14319 -14043#0 14034#6 13538#1 -13252 13233#1 14367 -14487#7 -13655#1 14454#5 13875 -13540 13490 13958#0 13251 14372#2 13468#2 14725#1 14212 14362#1 14347#0 14216 14304#3 -13467#2 -13618 13736#1 -13741#0 13434#2 -14015#1 -14034#7 13943 14587 14328#2 13754#2 14277 13356 -14629#2 13570 13610#0 13938 14492 13859#0 14008 13575 -13886#11 13783#0 13206#1 13955#2 13760#2 -13844 14183 14478#1 13753 -14489#2 13586 13720#0 -13725 -13469#4 13212#1 13687#0 -13191 -13614 -13773#2 13659#2 14189 13773#2 -14488#2 14631 -13739#7 14513#2 14356 14664 14272 -14489#0 13956#0 13754#1 13970#0 14220 -14022#1 -14489#1 13942#3 -13732#0 13778#0 13540 13299 13732#0 -13760#2 -13765#2 -14472#2 14202#1 13744#1 -13781#2 14472#3 14489#3 14403#2 14040#1 -13886#5 -14492 -13676 -13674 -14082#7 -13720#6 -13299 13535#0 14474 14554#7 14013#2 13563#2 13685 -13654#0 -14019#0 14021 13773#4 14586#1 14034#2 -13902#2 -13839#2 13746#0 14174 14244 14249 13211#2 13614 13904#3 13205#3 -13870 13774#1 14470#3 13532 14321 14629#3 -13737 14022#2 14487#4 -13893#1 -14010#2 13724#0 -13558 14634#1 13773#1 13468#1 14409#2 13389#2 13936 -13784 14269#1 14374 13751 -14480#1 -13778#3 14369#1 13903#0 13778#2 13872 -14034#3 13736#0 13782 -14080#0 -13955#0 14627#3 -13418#0 -13678#5 13888#1 14192#1 13189#5 13967#0 -13300 -13606#7 -13739#2 -13538#0 14473#0 14487#8 13940 13946#4 13893#2 13357 14568 14565#0 14403#3 -13678#7 13661 -13786#0 13469#0 -13958#1 14301#1 13361 14298#2 13722#0 13748#1 -13952#0 -13754#1 14635 -13908#5 13895#2 14049#2 -13890#0 13667#1 -13832 -13454#1 14230 13883 13880 14586#0 14627#1 -13471 -13731 13420 13858 13892 13304 14012#1 -13830 -13217#1 -13736#1 -13452 14623#1 14015#1 -13215#1 -13742#1 -13873 14045#5 13846 14479#3 -14454#0 -13908#4 14017#0 -14011#0 13212#0 14629#2 13492 13362 13934 14628 -13908#6 13544#1 -14634#4 13947#1 -14725#1 13389#4 -13751 13678#6 -13886#6 13206#0 -14010#0 -13606#5 13657#2 -13859#1 -13745 -13290 13529#0 14298#3 -13895#3 13884#5 13457#3 14294#1 13740#2 -13720#0 -13867#1 13779#0 14592#0 -13529#0 13901 -13974#0 13739#4 14593 14480#2 14299#3 -13779#0 14716 -13659#2 -13856#1 -13875 13897#1 14291#1 13424#4 14063 13840 -13468#2 14627#0 13214 -13730#0 14039#1 13534 14012#2 14479#2 -14629#0 13946#2 13466 14275 13742#3 14043#2 14403#0 14489#1 -14487#8 -13904#0 13877#1 -14073 -13897#0 13202 -14040#0 -13192 -13736#5 14290#0 -13585#0 -14634#0 13856#1 13884#2 13874 -14061#0 -14715 -14405#1 -13929 13289 -13958#0 -13677#0 -13721#5 -14013#5 -14634#3 -13748#2 -13904#6 13562 -13783#2 13971#2 -13729#0 -13563#1 14279 13526#3 14227#0 -13890#3 -13885 14487#16 13725 -14487#3 13888#0 -13687#1 13727 13425#0 13380 -14487#11 14375#1 13207#0 13748#4 14354 14226#1 -13544#1 -13651#0 -14487#5 13187#1 13771 -13289 14620#0 -13607#1 14721 -13773#4 14357#1 13970#1 13606#6 -14511 -13886#1 -13775 -14635 -13722#2 14373#0 -13953 13783#2 14487#9 -14487#16 -13773#3 14253#1 14269#0 14231 -14403#1 -13891 13952#2 -13955#1 13383#2 14672#0 14725#0 -14631 14227#1 -13847#4 14253#0 -13882#0 -14487#6 14245#0 -13468#0 14239 -13890#1 13904#2 -13895#0 -13680 13673 13189#4 -13859#0 -13879 -13536 13877#2 13765#2 14011#1 13844 14012#4 14042 -14062 -14488#0 13577 13473#0 -13529#2 14382#2 14043#0 13855#0 -14454#2 13783#1 -14472#1 -13746#0 -13904#2 14217#1 13655#1 -13932 -13726#4 13861#1 -13187#1 -13531#0 -13744#2 13389#3 -13872 13773#5 -13736#6 14472#1 -13661 14070#3 13966#0 14487#12 -13854 14085#1 14344#0 13899#1 13382 -13719#0 14295#0 -14034#0 13908#5 13366 13750 14394#1 13738 -13904#5 -14010#4 14327#1 -14019#1 14348#2 14448#12 -13904#4 13945#3 14232#2 13528#1 14225 -13893#2 -14454#1 13659#0 -14479#2 -14409#4 -13467#0 -14518#2 14728 13451 14693 -13839#3 13878 -13757#2 13722#2 13189#7 14727 -13359 14371#0 13786#2 -13757#3 14692#0 13354 14326#2 -13654#3 14010#3 -13467#1 13884#4 13773#0 13944 13774#0 -13754#2 14022#1 13530#3 14382#1 -13721#2 -13721#1 13678#0 -13455 14304#1 14186 -13753 -14403#3 14571#3 -13606#4 14592#4 14271 13740#0 -13947#1 13954 13186 13390 13618 13678#9 -14411 14453 13780#1 14623#0 14518#4 13869#1 14190 13456 14056#1 13205#5 13739#6 14302#2 -13936 14082#6 13607#1 13659#3 14043#4 14343 13966#1 13898 -13888#4 13529#2 13786#0 -13749#4 -13665 -14625 -13882#2 14487#14 -13362 13889#0 14348#1 13775 -14470#2 13839#1 -13984#8 13768 14015#3 14634#3 13932 -13884#0 14342 14034#1 14013#5 -14043#2 14323#0 14353#0 14470#1 14276#1 -13835 13341 -13360 14371#2 13474 14372#1 13893#1 13425#1"/>
    <!-- id="14" name="Roquebrune-Cap-Martin" -->
    <taz id="14" edges="-13638#0 13632 14397#1 14089 -13409 14616 14168#0 14426 13615 14654#1 -14439#1 13593 14400#3 14630 -13637 -14400#4 14445#4 -13647 14455#5 14580#0 -14400#0 14134 -13513#3 14417#1 14428#2 13631 14419 14559#3 14170 13619 -14559#3 -14067#0 -14445#2 -13630#6 -13628 14447 13584#2 13626 14400#2 -13629#1 14165#0 14311 14437#1 -14446#2 -13311 -14449#0 -14554#5 14443#1 14068#2 -14064 14428#1 -14417#0 14445#0 -14433#1 14704#1 -14432#0 14445#2 -13291 -13560 -13197 -14096 14420 13513#2 14397#4 14449#0 -14437#0 13312 14270 14455#0 14435#0 -14439#3 -14621 13512#0 -14133#1 -14417#1 13588#1 14273 13636 14169#0 -13416#1 14436#0 14446#4 -13649#4 -14397#2 13621 -14423#0 -14446#4 14094 14565#0 13629#1 13661 13313 14694#0 13653#1 -13511 14582 13342 -13630#5 13197 14554#3 14446#3 13649#2 -13649#3 14554#2 -14435#0 -14446#3 13653#5 13537#1 -13656 13376#1 13584#4 14442#1 14421#1 -13217#0 14621 -13620 14559#4 -14422#0 -13653#0 -13317 13653#0 13584#3 13624 13633 14090 -13649#1 -13416#0 13560 14293 14608#0 13589 13657#1 13653#2 -14134 14445#1 -14429#3 -13655#0 -13513#0 14437#3 13291 14450 -14440#0 -14447 -14654#0 13584#1 14046#2 -14450 13328 14092#1 14163 14169#1 -14068#1 -13631 -14437#1 -14430 14554#5 -14559#2 14168#1 14559#2 -14457#4 14559#0 -14046#2 -14445#3 -14653 -13630#3 -14417#3 13592 -13615 14429#3 -13408 13657#2 -14455#4 -14421#1 13649#4 -14152 13419 -14644 -14428#0 -14089 14440#0 -13290 -14554#2 14046#0 13346 14422#2 14644 -14421#2 14046#1 13376#0 14608#2 13623 -13312 14608#3 -13377 14092#0 -14130 -14443#1 13649#0 14399#2 14067#1 -13630#1 14452#1 13311 -13627 13317 14455#3 14423#0 -14432#1 14068#0 -13659#2 -14399#2 -14434#0 -13623 14439#4 14006#1 14436#1 13598 -14400#1 13353 -14559#4 -13636 -14086#0 13279 -14424 -13630#0 14654#0 -14046#0 13564 13647 -13634#1 -14554#0 14445#3 14439#2 13511 -13690#1 -14452#0 14417#3 -14445#0 14438#0 -13283 -14554#7 13316 13512#1 14455#1 -13641 13410 13630#6 -14565#0 14694#1 14446#1 14130 -14446#1 14160#0 14093 14166 -14421#0 -14566 -14630 14399#1 13651#0 14313 -14046#1 13344 14431#1 14656 -14444#0 13289 13345 -14654#2 14310#1 14433#1 13641 14044#1 14443#0 -14433#0 -13649#2 -14066 -14437#3 -13638#1 14400#4 -14399#1 -14559#1 13648 -14438#1 -13313 14425 -13649#0 14580#1 -14455#3 13630#4 13649#3 -14431#0 14431#2 13690#1 14044#0 14442#0 -13537#0 13638#0 -13513#2 -13410 13630#5 13630#2 14421#0 -13635#1 13599 14421#2 14437#0 14439#1 -14044#1 -14420 -14435#1 13588#0 -14565#3 13653#4 -13651#0 -14436#0 14428#0 13513#0 13288 14006#2 14095 -13289 -14554#1 -14400#3 13309 14439#3 13513#3 13656 -13616 -13407 -14429#4 -13411 -14437#2 13545 13649#1 -13653#1 -13651#1 13347 14452#0 14096 14164#0 -14441#0 -14431#1 -13634#0 -14438#0 13634#0 -14442#0 13616 14437#2 14432#1 -14445#1 13655#0 14400#1 -13622 -14445#4 -14455#1 14449#1 -14423#1 13617 -14399#0 13537#0 13286 -13633 -14092#2 14554#6 -14654#1 -13419 14423#2 13638#1 14554#0 -13545 13637 13343 13620 -14446#0 14653 -13598 14006#3 -14429#2 13630#3 14565#3 -14443#0 14431#0 -14554#6 -14091 13513#1 -13316 -14431#2 13377 14427 14422#0 14423#1 -14068#0 -14397#0 14622 -14444#1 13655#1 -14090 13411 14429#2 -14423#2 14167 13654#0 14398 14432#0 -13599 -14622 14417#2 14449#2 -14448#0 14668 -13661 14086#1 14397#3 14608#1 -14452#2 14164#1 -14429#1 14446#2 13315 -14440#1 13416#1 -13412 13407 -14423#4 -13659#3 13416#0 13412 -14095 14435#2 13233#1 -14428#1 -14439#4 -14455#2 -13537#1 -13624 -14554#4 -14656 -13655#1 14088 14448#0 14434#0 14152 14068#1 14312#1 14429#1 13653#3 14452#2 -14436#1 -13635#0 -14435#2 14429#4 14654#2 14091 -13285 13634#1 -13318 14067#0 13409 -13653#2 13635#1 14417#0 13421 14429#0 13408 14441#0 -14426 14554#1 14439#0 14309 -13650#1 -14031 -14422#1 13651#1 14455#4 -13653#3 -14044#0 -14425 -14442#1 -14397#4 -13625 13354 -14398 14160#1 -14441#1 14162 -13354 14559#1 14064 13630#1 -13512#1 -13629#0 13318 14422#1 -14419 13405 14455#2 14434#1 -14439#2 -13513#1 13329 14161 -14423#3 14435#1 13591 -13653#4 14583 -14429#0 13285 14006#0 14704#0 -14559#0 14670 14397#2 -14094 13290 14433#0 14165#1 13622 13659#2 14554#4 -13632 13640 -14417#2 -14422#2 13650#1 -13314 -14427 -13630#2 -14092#0 -14652 14652 -14397#1 13659#3 -14067#1 -13309 -14449#1 13590 14310#0 14423#3 -13653#5 -13640 -14452#1 -13286 14581 -13619 -14093 14703 14438#1 -14397#3 13635#0 14732 13278 -14088 -14092#1 13417#1 14440#1 14069 13284 14274 14171 -13630#4 -13353 -13288 -13564 14092#2 14312#2 -14087 14441#1 14566 14424 14444#0 -13315 -14069 14680 14444#1 14423#4 -13406 -14455#5 -13617 13242 13625 -14428#2 -14455#0 -14554#3 14397#0 -14439#0 13628 14554#7 -13512#0 -14400#2 -13654#0"/>
    <!-- id="13" name="Beausoleil" -->