
<tazs> 
    <!-- id="33" name="gw33" -->
    <taz id="33" edges="13343 13342"/>
    <!-- id="45" name="gw45" -->
    <taz id="45" edges="14732 13626"/>
    <!-- id="34" name="gw34" -->
    <taz id="34" edges="-13619 -14419 13615 -14420 14419 13619 14420 -13615 13242 13233#1"/>
    <!-- id="44" name="gw44" -->
    <taz id="44" edges="-13646#1 13646#1"/>
    <!-- id="43" name="gw43" -->
    <taz id="43" edges="-14510 14510"/>
    <!-- id="32" name="gw32" -->
    <taz id="32" edges="13394#1 13597#0"/>
    <!-- id="42" name="gw42" -->
    <taz id="42" edges="14526#0 -14526#0"/>
    <!-- id="41" name="gw41" -->
    <taz id="41" edges="-14534 14534"/>
    <!-- id="31" name="gw31" -->
    <taz id="31" edges="-14552 13251 13250#1 14552"/>
    <!-- id="1" name="Monaco" -->
    <taz id="1" edges="14347#0 14403#3 14592#1 -13897#0 13654#2 13751 -14513#2 13563#1 14290#1 13903#2 14626 13932 14702 -13886#8 -13563#0 14253#2 13529#0 -14479#2 14299#2 -13736#6 -13469#4 -13872 13529#1 13757#3 14592#2 14489#0 13207#1 13526#1 14224#1 -13896#0 -13775 14665 14203 14332#0 -13864#1 -14011#2 13213#1 13748#0 13209 13473#1 -13743 -13748#1 13959#1 14634#2 13901 13286 13773#5 14328#0 -13742#2 13744#1 -14470#1 -13904#1 -14488#1 14072 13868#1 14328#2 -14631 -14013#0 14409#2 -13777#2 -14475 13721#5 14378 13766#1 14722 13721#2 -13859#2 -14633 14588#2 13388 -13665 -13908#3 -14405#0 14347#2 14327#0 -13903#2 13383#2 14227#0 13779#1 -13677#1 -13868#1 -13718 13585#1 -13531#0 13896#0 -13858 -14085#1 -14043#0 -14487#12 14173#0 14367 14200#0 14292 -13970#0 13434#2 13940 -13902#2 14692#0 -13908#6 -14487#8 -13942#3 14725#1 14253#3 14592#4 -14411 14212 13773#2 -13683#0 -13955#2 -13887 14179 14289 13336 13908#3 -13941 13889#1 14207 -14487#4 -13607#6 -13606#2 13959#2 14449#2 13462 14568 -14487#7 13868#0 -13904#6 14061#0 13903#0 -13774#1 14236#1 13205#1 14321 13468#1 14411 13531#1 13745 14033#2 -14041 -13888#3 13842 14664 14276#1 -13364 13189#7 14634#3 14685#1 -13467#1 13678#4 14187 -13952#2 13951#0 13838#1 13208#0 13678#9 13749#5 13966#1 13678#7 13949 13290 13544#0 -13883 13370 -13868#0 13741#1 -13468#1 13884#4 13890#0 -13903#1 14627#0 14365#0 14373#1 -14034#0 14382#2 13523 14034#7 13729#1 -14032 13558 13936 14362#0 14195 13606#0 -14070#3 -13469#2 -13882#2 -13895#0 -13870 14019#0 -14480#0 -13741#0 14355#1 -13876 -14061#2 -14347#1 -14513#0 -13861#1 14291#0 13731 13888#2 -13962 14009 14488#2 14234 13870 -13420 14226#1 -14080#0 14018#2 14472#0 14473#1 13424#3 13492 -13529#1 13908#2 13562 13899#1 14344#0 13856#1 -13494#1 13678#6 -13937 -13948 14181#0 13659#2 -13871 13847#5 14034#5 13424#2 -14015#3 13740#0 -13961 13886#11 -13863 -14034#2 -13359 -13882#1 -13908#1 13575 14403#0 14295#1 13534 14362#2 -14518#2 14192#1 13425#1 13210#0 -14624#1 14272 13677#1 13742#3 -13853 13739#5 13473#3 13607#6 14213 14298#1 13726#1 14011#1 -13884#2 14641#0 14394#1 -14454#2 13421 -13369 14357#1 -13655#1 -13877#0 -13390 -14347#0 13222#0 -13462 13473#0 13222#1 -13214 13744#2 13678#5 -13753 14304#1 -13290 14348#0 13294 -13468#2 14487#1 -13773#4 -13904#2 14730 14018#1 -13607#0 -13781#2 13838#0 13467#1 -14725#1 14082#7 -13955#0 13187#1 -14039#1 14015#3 -13606#0 14205 -13929 13654#1 14327#1 -13757#3 14403#1 14627#3 13391 13380 -13746#0 -13659#3 -13964#0 14043#0 -13678#5 -13834 14362#1 14692#1 13843 13888#4 -13788 -13379 -13902#0 13882#2 -14019#1 -14478#1 -13741#1 13971#1 -13742#0 13739#7 -14634#3 14022#1 -13662#1 -14623#1 -14634#0 13895#1 -13654#2 -13974#0 13739#11 -14518#3 -13835 14489#2 13904#3 14180 13880 13973#1 13864#1 -14063 14225 -14448#10 14043#2 14365#1 -13535#0 14013#1 14215#1 -13758 13586 13368 -13685 13778#0 14721 -13886#1 -13960 -13869#0 -14641#0 13859#1 13721#0 13726#3 -14034#6 13749#0 -13739#1 -13217#0 -13606#4 13859#2 13189#0 14299#1 13972#1 -14474 14174 -14715 13740#2 13335 13889#2 14405#0 14634#1 13750 -13945#3 13886#1 14370#1 -13938 13942#3 -13744#2 -14472#1 -14405#1 14173#1 -13891 13526#3 13365#0 -14479#1 13686 13935 14571#3 13971#0 14013#4 14662 13606#5 14233 13746#1 -14022#1 14231 -14487#1 14364 14294#1 13473#2 13947#1 14236#0 -13864#0 13835 14275 -13276 -13677#2 13946#4 14196#0 14226#2 14623#1 13739#3 14184 14373#3 14040#0 13383#0 -13221 -13435 -13954 -13893#1 14472#2 14250 -13191 13457#2 -13418#0 13831 13732#0 14487#0 14376#0 13721#3 13946#5 14061#1 -13940 -13760#0 14301#1 14729 13491#1 13786#1 14078 13908#1 13749#1 -13661 14056#4 -13534 -14013#2 13677#2 -14487#5 13390 13890#4 13212#4 -13720#1 13687#2 14624#0 14181#1 14341 -14634#2 13736#4 13942#0 13250#1 -14487#14 -13745 -13884#0 14021 -13840 13214 13953 13682 13946#0 13251 13459#0 13879 14325#0 13733 -13879 -13687#2 -13748#2 -13563#1 13720#1 -14716 14586#1 13659#0 -14492 13456 13654#0 -13848 14625 14299#4 -14629#0 13855#0 -13552 14033#4 14291#1 13904#4 13939 13970#2 13577 -13972#1 -13959#1 -13457#2 13722#0 -13766#1 13857#0 -13686 14295#0 14473#0 13874 13291 13884#5 -13544#0 -13900 -14489#3 14252 13720#6 13739#9 13352 14070#4 13688 -13778#2 14015#0 -13783#2 13675 13972#0 14587 14215#0 -14634#1 13865 -13456 -14489#2 -14011#0 14487#4 -14034#7 13389#4 -13719#2 -13751 -13363 13839#0 -13735 13834 13746#0 13687#0 -13882#0 -14624#3 13890#3 -13749#0 13455 -13842 13607#0 13569 14253#0 -13779#0 -13688 -13739#3 13542 -13847#3 13389#1 13758 13760#2 13720#0 14474 -13654#1 13525 -13750 14070#7 13777#2 13585#0 14063 14056#2 -14013#5 -13777#0 13190 13528#0 14328#4 13467#2 14344#1 13971#2 -14021 14298#0 14015#1 14197 -13890#3 13191 -13720#3 14365#2 14022#0 14251 13722#2 -13967#1 14224#0 -13873 13535#0 13942#4 14034#6 -14034#1 13365#1 14356 13771 -13958#0 13721#1 -14061#0 13861#2 -13729#2 14222 -13865 14487#5 14217#2 14448#10 13930 -13678#8 13937 13367#1 13212#3 14232#2 13369 13563#3 13893#2 13889#3 13530#2 -13861#4 13552 13857#2 13466 14343 14354 14487#14 -13760#2 13667#1 13833 13661 13951#1 13418#1 -13890#1 14470#2 13206#1 -13432 -13856#0 13493 14010#4 14071 -13304 14628 -14043#1 14020 14373#0 -13867#1 14634#4 14012#3 13846 13958#0 13689 13205#2 14517 13739#1 13888#5 -13889#2 13215#1 -13736#1 -13678#6 13469#3 14302#2 14015#2 13839#1 13888#3 13956#0 14294#0 -14634#4 -13286 14043#1 14565#0 -13890#4 13859#0 14070#5 13958#1 13898 13955#2 14010#3 -13740#2 13736#2 -13736#0 13773#4 13681 13719#0 13945#0 14188#0 14689 -13936 13878 13786#0 -14403#1 14042 13424#1 -14070#7 14226#0 14189 14227#1 13299 14488#0 -13781#0 -13738 13606#7 13357 13727 14586#0 -13739#4 13367#0 14470#3 14487#6 -13680 -13944 13783#0 13526#4 14409#1 13773#0 14592#3 14232#1 -13832 -14015#1 -13884#5 13967#0 13678#2 -14724 -13774#0 -14487#0 -13866 14019#1 13211#5 13952#1 -14518#4 14672#1 14588#0 14253#4 13847#4 13780#1 -13215#0 -14488#2 -13689 14318 14241 13778#2 13530#0 13904#1 13748#4 13941 -13970#1 -13187#0 -13955#1 14487#16 -13471 13202 14253#1 13765#1 -13958#1 14159 14202#1 14690 -13771 13533 14372#2 -14019#2 -13942#0 14186 -13746#1 -14487#9 -13847#4 -13740#0 14631 13884#2 13582 13404 14216 -14010#4 13755 13304 13867#1 13724#1 14017#0 13783#1 13830 -13721#0 14348#2 13657#1 13367#0-AddedOffRampEdge -14625 -13606#6 -14473#1 14010#0 14512 -13681 14204 13886#9 13211#4 14305#2 -13890#2 -13558 13662#2 14299#5 -13839#2 14279 -13340 -14448#11 13742#1 13748#3 14304#3 14008 14299#3 13748#1 13893#0 -13765#1 -13869#1 14489#3 13908#6 14323#1 -13935 -13943 13774#0 14039#0 14369#0 14007 -13674 -13849 14034#1 14596 13736#0 -13354 13434#3 13300 -14071 14731 -13726#0 -13945#1 13895#2 13974#0 -13531#1 13418#0 -13721#1 -14085#0 -13659#2 -13535#1 13738 -13754#2 13778#3 -13727 13420 -13953 13389#3 -13731 13674 -14347#2 -13781#1 13563#2 13754#1 13886#8 13873 14366#0 14368 -14624#0 13754#2 14322#2 14518#3 13955#0 14620#0 -14070#8 13722#1 -14454#1 -13904#3 14269#1 -13966#1 13219 14513#0 -13493 -13886#7 13451 -14479#0 13947#2 14328#1 13769 14454#2 -14409#2 13655#0 -13459#0 13606#4 -13769 -13877#2 -14487#15 14487#11 -14040#1 13871 13886#5 -13467#2 13845 14294#3 -13614 13205#3 -13889#3 14489#1 13748#2 -13770 -13939 13719#2 -13662#2 -14725#0 14624#1 -13839#1 -13662#0 -13908#4 14041 -13296 13781#2 -13765#0 -13585#1 -13755 13770 13425#0 14304#0 -13984#8 -13786#2 -13677#0 14210 -14454#3 14372#0 -13468#0 14661 13861#4 -13577 13720#3 -13886#2 13383#3 13453 -13219 13757#2 -13425#0 14157 13943 13434#0 -13606#7 13730#0 13893#1 -13773#3 13904#0 13942#1 14624#3 14049#1 14691 13784 -14045#5 14061#2 -13773#2 13890#1 -13785 13882#1 -13931 -13736#3 13469#1 -13949 14353#0 13886#10 -13523 -13606#5 -13904#5 -13942#4 -14034#4 -13739#8 -13719#0 14056#0 14154 13904#2 14034#10 13212#1 13782 14487#7 -13610#1 -14010#2 14586#2 -14487#13 -13874 14487#8 -13736#2 -13294 -14726 -13886#10 13187#0 -14488#0 14192#0 13895#3 -13726#2 -13777#1 13379 14298#2 13931 -14487#3 13529#2 -13888#0 -13187#1 -13784 13734 13276 -14015#0 14245#1 13687#1 13837#0 -13895#3 14322#0 -13884#4 13532 14728 -13451 14487#12 13356 13655#1 13221 13570 -13720#4 -13877#1 14346 -13563#5 -14554#7 13471 -13654#3 14671 -13903#0 14082#6 14326#1 13847#0 -13838#1 14342 -13968 14019#2 13189#3 14470#4 -13881 -14489#1 -13252 13854 14375#0 -14470#4 14358 14453 13186 13720#2 13970#1 13531#0 13877#2 13885 14595 13896#1 14043#3 14039#1 13673 13678#0 14480#0 -13467#0 -13886#9 13242 13536 -14487#11 14635 13775 13223 14049#3 -13654#4 -13776 -14070#4 -13719#1 -13773#0 13665 14513#2 13457#0 -14062 13424#4 14355#0 -13730#1 13527 14361#0 13961 13454#0 -13654#0 13884#3 -13773#1 13189#4 -13890#0 -14010#0 -13469#3 -13956#1 14716 13657#2 14488#1 13875 13904#6 14480#1 -13720#5 14057 -13908#0 13736#5 13856#0 -13888#2 -13730#0 13212#0 -13945#2 13581#1 -14628 13610#1 13851 13847#2 14299#6 -13950 -13724#0 13944 -13721#4 14629#3 14049#4 14201 14271 14620#1 -14010#1 14022#2 14239 14190 14382#1 13205#5 14475 13662#1 -13749#4 -14403#0 -14629#3 -13299 14663 -13889#0 14070#3 -13457#0 13208#1 14183 14360 -13766#0 14290#0 -13185#0 14045#5 13680 13776 -13744#1 13189#5 -14403#2 14012#0 -14480#1 13217#1 14158 14592#0 13730#1 -13897#1 13882#0 13457#3 13861#1 14304#2 -13942#2 14240 14080#0 13732#1 13458 -13780#0 13618 -13722#2 -13902#1 13839#2 -13679 -13875 -13736#4 13945#2 -13722#0 13607#4 13869#1 14479#0 -13908#5 -13192 13957 14217#0 13360 -13721#5 14363 14588#1 14323#0 13207#0 14175 13354 14369#1 -13720#6 14409#3 13864#0 13351 -13293 -13418#1 14448#11 -13904#4 -13895#2 -13732#0 -13749#2 -14479#3 14627#1 14693 -13739#9 -14409#1 -13861#3 13765#0 -14472#3 14594#1 14682 -13457#1 -13720#2 14010#1 -13729#1 -13952#1 14629#2 14666 -13838#0 13457#1 -13855#0 -13886#5 14324 -14470#2 -14015#2 13375 13495 13890#2 -13970#2 -14061#1 13946#3 13850 14012#1 14554#7 13718 -13957 13760#0 -14409#3 13361 -13733 14033#3 13544#1 13432 -13655#0 -13722#1 -13885 14353#1 13964#1 -14511 13494#0 -13726#1 14454#3 -14034#5 13363 14725#0 -13850 -13760#1 14237 14479#2 13289 -13880 -14472#2 14232#0 -13739#2 13538#1 -14043#2 13899#0 -13947#0 -14629#2 -13563#2 -14487#6 14269#0 13742#4 13726#0 13858 13389#2 -13525 13654#4 14683 -13933 14518#5 13777#1 14200#1 -13757#2 -13682 -14045#0 13945#1 13886#2 13494#1 14294#2 14714 -13778#1 13742#0 14518#4 14374 13721#4 -14515#2 -13748#3 13205#0 13787 14244 14487#10 14288 14371#0 13749#2 14217#1 -13459#1 14277 14479#3 14511 14672#0 -13839#3 13530#3 -13736#5 13968 14627#2 13948 -14043#3 14409#4 -13971#1 14016 -13768 -14629#1 13946#1 14230 -13884#1 -14472#0 13524 -13908#2 13869#0 13888#1 -14007 14155 14013#2 13654#3 -13886#11 -13899#0 13656 -13675 13783#3 14228#1 -13739#7 13872 13954 -13368 14048 14347#1 14470#0 13849 -13899#1 14487#9 13207#2 14487#15 14623#0 -13964#1 -13651#0 -13687#0 -13846 13895#0 14172#0 13892 -13610#0 13934 13786#2 13749#3 13903#1 13960 13848 14070#2 -14045#4 -13458 13883 14278 13942#5 -13532 -13184 13459#1 -13959#0 14470#1 13563#5 13651#0 -13490 -13749#3 -13773#5 13205#4 14070#8 13206#2 14520 -13886#3 -13740#1 14325#1 13535#1 13773#3 13844 -13959#2 14715 13729#0 -13492 14322#1 13739#4 -14454#0 -13945#0 13889#0 14185 13211#0 13840 13778#1 -13778#0 -13667#1 13607#1 14302#0 -13748#4 14348#3 -14478#0 14373#2 13781#1 13749#4 -13454#1 13837#1 -13886#4 13952#2 -13754#1 -14011#1 14376#1 14200#2 -14034#10 -14635 -14013#1 -13841 -14082#7 13719#1 -13687#1 -13765#2 13832 13739#8 -13454#0 -13607#4 -13860 14372#1 -13291 -14453 13648 -14448#12 -13404 13756 14724 -13878 -13678#9 13460 -13930 13737 13189#2 14243 14149 14480#2 14667 13739#6 13741#0 -13748#0 14214 14478#1 14382#0 13886#7 -14014 14379 13788 -13540 -14043#4 13196 13774#1 -13852 -13833 -13659#1 -13844 13753 14348#4 14629#0 -13893#2 -13529#0 -13538#1 -13861#0 -14013#4 14454#1 -13455 14375#1 13904#5 14305#0 14235#0 13491#0 14303 13293 -13452 14151 -14040#0 -13721#3 -13673 -14626 -13380 13720#5 13847#3 13877#0 14370#0 -13739#6 -13222#0 -13845 13452 -13895#1 14454#0 14220 -13861#2 -14070#5 13855#1 -13884#3 13614 -13847#0 -13222#1 -13886#6 13469#2 -14550#0 14394#0 14208 14487#13 13659#1 14034#2 -14623#0 13678#3 14047 14332#1 14492 -13904#0 13886#0 13538#0 -13538#0 -13756 13189#1 -14082#6 -13839#0 -14022#0 13897#0 14177#0 13211#2 14033#1 -13563#3 -14073 -14019#0 13189#6 14301#0 13783#2 14328#3 -13742#4 13340 13210#1 14487#3 -14403#3 14011#2 13563#0 -13966#0 -13659#0 14085#1 14034#3 -13737 -13856#1 14319 -13854 13726#2 -13656 14177#1 -13186 -14409#4 13853 13679 -13786#0 13888#0 13950 14359 -13536 -13859#1 13607#2 13861#0 -13783#1 -13466 14010#2 -14039#0 14306 -13896#1 13211#1 13366 14384 13467#0 13725 -13726#3 13212#2 -14023 14085#0 13739#2 -13684 -14010#3 13215#0 13469#0 -13527 14070#6 13897#1 -13783#0 14023 -13973#1 14370#2 -13618 13341 14245#0 14181#2 13233#1 -13607#1 -14623#2 13676 -13494#0 13857#1 13902#2 14448#12 14629#1 13884#1 -13460 13966#0 13863 13740#1 13606#2 14191 -14034#3 -13859#0 14012#2 -13757#0 -13830 -14022#2 14298#3 -13289 -13787 14073 13881 13530#1 13723 -13678#2 -13786#1 14249 14300 14228#0 14056#3 13967#2 -14473#0 14049#2 -14078 13666 13877#1 -14070#6 13528#1 13382 13739#10 13891 13902#1 14017#1 -13967#0 13362 -13678#1 13743 -13782 -13729#0 -13952#0 14193 -14487#16 13970#0 -13542 -13956#0 -13889#1 -13972#0 14349 13685 -13851 13886#3 13946#2 14326#2 14014 14056#1 -13947#1 -14624#2 14380 13454#1 14229 -14070#2 13785 14196#1 14150 13252 -13469#0 13359 13768 14472#1 13606#6 -13886#0 -14714 13208#2 -13721#2 -13847#5 14045#4 13736#3 13908#5 -13739#5 -13607#2 14593 14223 13942#2 14727 -13529#2 -13783#3 14238 13908#0 -13360 13474 14246 -13732#1 13726#4 13540 14366#1 -14454#4 13581#0 14294#4 -13469#1 13490 -13678#0 -13678#3 14623#2 -13457#3 13839#3 -13361 14062 -13678#4 -13862 -14480#2 -13300 14479#1 13929 -13217#1 -13585#0 -13749#5 13659#3 14323#2 13886#6 -13778#3 -14565#0 -14487#10 14034#8 13962 13777#0 13886#4 -13734 -14489#0 14454#5 -13370 13866 13956#1 14624#2 -13375 -14057 13684 13773#1 13945#3 -13723 -13888#1 14307 14348#1 -13362 -13676 13729#2 -14470#3 13947#0 -13942#1 -13749#1 13765#2 13469#4 14013#5 13184 13435 -13742#3 13678#8 14040#1 13211#3 14211 13736#1 14371#1 13735 13683#0 13779#0 13900 14033#5 14034#4 -13742#1 -13893#0 -13780#1 14326#0 14403#2 13955#1 13742#2 -14470#0 -13725 14454#4 -13932 14472#3 13852 -13720#0 13861#3 13678#1 14015#4 14345 14011#0 13383#1 13526#2 -13678#7 13938 13760#1 13434#1 14012#4 14235#1 -14034#8 -13847#2 13736#6 13724#0 14726 -13855#1 14405#1 -13215#1 13468#0 14188#1 14018#0 -13971#0 13908#4 14043#4 14297 13610#0 14685#0 14697 13468#2 13206#0 -14009 -13726#4 -13544#1 14371#2 -13739#10 13720#4 -13888#4"/>
    <!-- id="14" name="Roquebrune-Cap-Martin" -->
    <taz id="14" edges="14400#2 13616 -13616 -14429#4 -14445#1 14554#2 -13631 -14086#0 -14428#0 -13416#0 -13638#1 -13630#1 -14152 14428#1 -13615 -14435#2 14644 -14068#1 -13653#1 -14067#1 -14422#2 -14455#5 -14092#1 13376#1 13651#0 13653#2 -14428#2 14273 -14426 -14438#0 14449#1 -14432#0 14435#2 -13512#0 14437#0 13620 14439#2 13513#1 13653#3 14608#0 -13630#4 14423#1 13654#0 13545 -14046#2 14438#0 -13634#0 14436#1 13344 14431#1 14417#2 -13649#1 -13650#1 -14397#4 -14566 14092#2 13353 14164#1 -14067#0 -13513#2 -14399#2 13412 -14423#3 14580#1 -13622 -14554#2 -14435#0 -14449#0 13291 -14425 13584#2 -14433#0 14439#3 14446#3 -14400#2 14422#2 13286 -13511 14554#5 -14442#1 -13632 13649#0 -14554#5 -13291 13537#1 13588#1 13648 -14428#1 14165#0 13637 14069 14311 -14397#2 14424 14428#0 14442#0 14046#2 -14446#1 -14630 14455#0 14441#0 14399#2 14582 14429#4 -14066 -13316 14152 -13649#4 13630#6 -13619 -14431#2 14006#3 -14445#4 -13636 -14089 -13630#5 13315 13346 14445#4 -14433#1 -13406 -13653#4 13635#0 14455#3 14438#1 13347 14170 14583 -14554#6 -14441#1 -14417#0 14064 -13649#3 14309 14270 -14455#4 14398 14554#3 -14091 13345 14559#0 -13315 14163 14654#1 14429#1 13650#1 -13317 -14656 -13690#1 -13628 14092#1 14164#0 -14422#1 -13410 -14437#1 13584#4 14446#4 13632 -13512#1 -14444#1 -13653#5 -14622 -13651#1 -13653#0 -14443#0 14439#4 13655#1 13409 14160#1 13416#1 14274 -14452#2 13284 -14417#2 -14554#7 13513#3 14421#2 13512#1 14445#0 14425 14449#2 -14068#0 -13408 -13407 14437#1 13628 14621 13589 14088 14442#1 14559#4 -13409 14566 14417#3 14452#0 13317 14420 14397#1 13377 -14430 13638#0 14006#0 14435#0 13417#1 13634#1 -14421#2 14397#0 14046#1 14445#2 13513#2 14435#1 14310#1 -14444#0 14165#1 14653 -14446#0 -14421#1 13405 13560 -14069 -14436#1 -13313 -14565#3 13242 14046#0 -13647 14293 -13656 13290 14446#1 -14417#1 14169#0 13661 -14445#3 14434#0 14680 14421#1 -13629#0 -14092#0 -13630#2 14166 -14435#1 -14455#1 14399#1 14444#0 13407 14654#2 14169#1 -14450 14732 13537#0 -14440#1 -14432#1 13312 13640 -13624 13591 -13654#0 -14445#0 -14429#0 13630#2 14161 14703 14400#1 13278 -13620 -13630#0 -13564 -14400#1 13649#3 -13513#3 -14654#0 14455#2 14444#1 -14447 13621 13657#2 14397#2 -14031 13343 13690#1 -14423#4 13633 13653#0 -14130 -14437#3 -14559#4 14160#0 13376#0 13638#1 14130 -14093 14068#0 14089 13584#1 13617 13288 -13286 14565#0 13233#1 14429#0 13316 14630 -14088 13626 -14423#1 -13545 -14420 14095 14441#1 13630#5 -14554#0 14423#2 14090 -14439#1 14006#2 -13637 13624 -14398 -14654#2 13659#2 -13537#1 14445#1 -14397#1 14704#1 -14423#0 -14434#0 14422#1 14419 14455#4 13649#4 14554#0 13419 -13289 -14439#4 -14417#3 -14442#0 14448#0 14694#0 14434#1 13279 14068#2 -14092#2 13197 14171 14091 -13640 14429#3 14162 14654#0 14440#0 -13318 -14449#1 -14087 14068#1 13584#3 14427 -13311 -14399#0 13311 13421 14580#0 -13560 13634#0 -14443#1 14423#0 13630#3 -13655#1 -14090 -14621 -13197 13309 -14429#2 14400#4 14397#4 -14044#0 13623 14067#0 13615 14437#2 13411 13408 14134 -13290 -14446#3 14446#2 -14440#0 14608#1 -13633 14096 14559#1 13512#0 14428#2 14447 -14554#4 14168#0 14443#0 14608#3 13354 -14559#0 14439#1 -14452#1 14167 -13649#0 14423#4 14417#1 14452#1 -13598 -13285 14581 13598 -13537#0 14312#1 -14044#1 13631 14431#0 13599 -14652 -13419 -14429#1 -14424 14449#0 14554#1 -14422#0 13622 14439#0 -13659#3 14436#0 -14046#1 -14397#3 -14455#2 14431#2 -14559#1 13590 14565#3 14433#0 -13629#1 14455#5 -13634#1 13329 14400#3 13511 -14653 14452#2 14704#0 -13627 14554#6 14554#7 13629#1 13588#0 14694#1 -13630#6 -14397#0 -14445#2 -14455#0 14397#3 13659#3 -13638#0 13513#0 -14439#0 13657#1 14450 -13288 14437#3 -13655#0 -14565#0 13636 -13309 -13641 -14554#3 13285 14168#1 -14452#0 -13635#0 -13623 -14441#0 13318 -14431#1 -13353 -13653#2 13649#1 14092#0 14622 -13217#0 13410 14422#0 -14095 14086#1 13289 14433#1 13625 14429#2 -14423#2 14608#2 -14437#0 -13617 -14446#4 -13635#1 -14554#1 14006#1 -14400#3 -14448#0 14616 -14133#1 -13625 13649#2 -14400#4 -13416#1 -13354 14426 -14437#2 -14046#0 -14439#2 14310#0 13593 13641 -14400#0 13564 13416#0 -14094 14670 14656 -14421#0 14559#3 13653#4 14455#1 13653#5 13313 -14431#0 -13659#2 -14064 -14419 14421#0 14312#2 -14438#1 13342 -13649#2 -13412 14313 -13283 -14457#4 14445#3 -14559#2 -14399#1 -14427 14652 -14654#1 -13314 -13513#0 13630#4 14432#1 -14439#3 -14096 14417#0 14443#1 13653#1 13592 -14559#3 -13513#1 14440#1 -14429#3 -13630#3 14668 13619 13647 14094 -13599 -14446#2 14432#0 14559#2 -14134 -14644 13656 -13312 -13653#3 -14455#3 14423#3 13328 14044#0 -13377 -13411 14067#1 14044#1 13651#1 14554#4 13635#1 13655#0 13630#1 -14436#0 -13661 -13651#0 14093"/>
    <!-- id="13" name="Beausoleil" -->