
<tazs> 
    <!-- id="33" name="gw33" -->
    <taz id="33" edges="152269 152268"/>
    <!-- id="45" name="gw45" -->
    <taz id="45" edges="152550 153652"/>
    <!-- id="34" name="gw34" -->
    <taz id="34" edges="-152187 153341 -153341 -152543 -152539 152543 -153342 153342 152539 152189"/>
    <!-- id="44" name="gw44" -->
    <taz id="44" edges="-152570#1 152570#1"/>
    <!-- id="43" name="gw43" -->
    <taz id="43" edges="153432 -153432"/>
    <!-- id="32" name="gw32" -->
    <taz id="32" edges="152319#1 152521#0"/>
    <!-- id="42" name="gw42" -->
    <taz id="42" edges="-153448#0 153448#0"/>
    <!-- id="41" name="gw41" -->
    <taz id="41" edges="153456 -153456"/>
    <!-- id="31" name="gw31" -->
    <taz id="31" edges="-152187 152189 -153474 153474"/>
    <!-- id="1" name="Monaco" -->
    <taz id="1" edges="152933#0 -152935#1 -152589 -153333 152798 152398#1 153331#4 -153646 153603 153223#0 152894#0 -153545#1 -152666#4 -152392#2 152825 -152418#0 153283#0 -153401#1 152314#1 -152654#0 -152956#0 152154#0 -152933#4 153162 -152853 153004#6 -152785#4 153514 -152810#1 -152808#2 153094#0 153410#2 152662 -153555#0 153275#1 152663#11 152602#4 -153394#1 152871#0 152888#1 -152801#0 152882#0 -153331#1 152703#1 -152756 153301 152808#4 152534#0 -153552 152785#0 -152814#2 152681#3 152487#1 153402#2 152466 152418#0 152149#4 -152608 152462#1 -152604 152152#1 153221#3 -152656#0 152646#1 152870#0 153213#1 152283 -152509#0 152692 152940#1 152820#1 -152812#4 -152707#2 153157#1 -152663#2 152781#0 -152657 -152530#7 152939#1 153513#0 152261 -152771#0 -152894#1 152285 -153004#7 153122#1 152796 -152578#2 -153549 -152660#2 153221#1 -152967#0 152879#0 -153376#3 152531#6 152761#0 153217#0 152869#3 -152288 152826#1 152664#0 153247#1 152384#1 -152693 153409#8 -152866#3 152394#1 153227#2 152672#1 153102 -152531#2 -152832#1 -152673#1 153107 152955#5 153250#0 -152663#7 153270#0 -152216 153316#1 152777 153394#0 152579#0 -152826#0 153587 -152832#4 -152464 152978#2 -152817#0 153612#1 153161 -152678#2 152884 152154#1 -152965#2 -152771#4 -152487#3 153148#1 -152394#4 153517 -152602#4 152793#1 153294#0 -152166#1 152597 -152393#0 152579#1 -152823#0 -152586#2 152644#1 152308#2 152668#2 153402#0 -152886 152666#2 153266#0 -152699 153248#1 153244#0 152828#1 152450#4 -152647 152487#3 152793#0 153168 -152578#3 -153414 153585 153401#1 152710 152350#0 153290 153281 153392#0 -152673#3 152804 -152863 152754 -153269#0 152965#3 152795 -152689#1 -152759 -153402#0 -153440#2 152415#1 -152226 -153331#4 -152933#3 153442 -152985 -152828#2 -152810#10 153095#1 152668#1 -152482 153555#4 152673#2 152979 153435#0 152149#5 152660#2 153122#0 -152530#6 153325#3 152816 152956#6 153249#1 -152702#0 -152896#0 152453#2 153401#0 153118#0 153291#0 153217#1 153592#0 152155#0 153163 153103#2 -152449 153645#0 -152828#6 -152586#1 153409#0 -152669 -153411#3 153137#1 152761#1 -153409#9 152391 -152660#3 -152757 -152777 152657 152454#2 152828#5 152935#1 -152869#1 152801#2 -153644 152711 -152530#2 152645#2 153224#2 -152678#1 153555#2 152501 -153375 152823#1 153250#2 -152663#9 153108 -152650#1 152601#2 152459#0 152766 152666#3 152706 152643#1 153409#9 -152602#5 153081 153644 -153409#13 153263 152650#4 152220 153295#2 152583#3 -152697#5 -152667 152314#3 152931 -152965#1 -152884 152131#1 152646#2 152379#0 153613 152812#2 153287#0 -152878 -152448 -152453#0 -152602#0 -153550#0 -152602#2 153250#1 -152393#1 -152684#0 152955#4 -152304 -153645#0 -152784 -152979 152898#0 152295 -152660#5 152806#2 152150#1 153295#3 -152808#1 152771#3 152653#0 152602#5 152962#1 -152644#5 152287 153376#0 152814#2 -152694 -152871#0 -152462#1 152608 -152579#1 152939#0 153103#0 153175#3 -153376#0 -152701#0 -152788#0 153270#1 153127 152215 152866#0 -152965#0 -152136 152962#0 152673#3 -152794 -152708 152158 153395#1 152814#1 -152684#1 153636 153513#2 152783#1 -152681#0 -152786 153435#2 -152387 152892 -152357 152695 152876#2 -153325#3 -152538 152965#2 152870#1 -152956#3 153112 153325#2 -152806#2 153392#4 -152663#3 152149#3 152674 152994 153221#0 153220#1 152226 153409#5 -152827#2 153434 -152876#1 -152692 152865 152684#2 152580 152870#5 -152220 -152166#0 152663#7 152938 -152992#2 152866#2 -152453#2 -152771#5 -152810#8 152149#2 152398#2 152870#3 -152805 -153545#0 -152769 -152487#5 152933#1 -153402#2 -152660#0 152451 152871#1 152821#0 -153440#3 153401#2 152672#0 152450#3 153409#12 153167#1 152653#2 152983#1 152660#5 152663#1 -152289 -152880#0 -152983#1 -152672#3 152157#1 152644#2 153266#1 152768 -153409#0 153097 152359#0 152171 152933#2 -153411#0 -152773 152660#6 152935#4 153148#2 153224#1 152293#0-AddedOffRampEdge 152969 153221#4 -152575#0 152813#2 153216#3 -152645#3 152380 152678#1 152937#1 -152933#2 -152655 -152384#0 -152158 153376#4 152586#1 -152583#0 -152601#1 153276 152790 152810#3 -153392#3 -153002#0 -152888#1 152813#1 152812#3 153293#1 152808#5 -152170#0 -152770 152780#1 152870#4 153642 152286 -152459#1 153129 153304#2 -152649 -152806#0 152983#0 -152645#5 152868 153122#2 -152799 152450#2 -152602#8 152705#2 152992#8 152663#5 -152689#0 -152360 152681#2 -153409#7 152133#7 153149#0 152455#1 152153 -152832#6 -153327#1 -152611#0 152329 -152785#1 -152682 -152645#2 153149#1 152866#1 152757 152531#2 -153409#12 153212#0 152166#0 152345 153645#1 153103#1 -152681#3 152672#4 -152531#1 152895#1 153440#3 -152656#1 152782 152359#2 153126 153409#13 152379#1 152828#6 -152819#1 -153000 -152689#2 -152661 152167 153154#1 152382#1 -152763#0 -152585 -152813#0 -153325#0 153546 153191#1 152670#0 -152827#0 -152933#1 -152706 152650#3 152598 -152591#1 -152768 152871#2 153297#1 -152808#0 152945 -152602#9 153284#1 152810#2 153111 -152826#1 153548#0 153284#0 -152892 152644#6 153077 153295#0 152417 -152599 152575#0 -152961#1 152155#5 152814#3 153410#0 -152612 152583#1 -152881 153076 -153409#8 152392#2 -152810#7 153394#3 -152534#0 -152705#2 152935#2 153227#0 -152707#3 152381 152163 153174 -152883#1 152867 152808#3 -152610 152293#0 152602#6 -152934#2 -152468#0 152155#1 -152821#0 153649 152993 -152992#5 152493 152393#1 -152812#0 -152294 -152813#3 153333 152384#0 153611 -152644#2 152134 152416 153507#2 -152650#4 -152883#0 -152394#0 -152396 -153392#1 152755 -153544#1 -152812#3 153396 152971#4 -152937#2 152870#2 -152673#4 153136 -152648#0 153095#0 152821#1 152802 152808#1 -152890#1 152150#0 -152762#0 -152869#2 152646#0 153298#0 153226#2 152450#1 152869#0 152684#1 152862 152992#5 153220#0 -152807 152773 -152828#1 -152764 -152956#2 152289 152644#4 153376#5 152788#0 152531#0 -152810#4 -152821#1 152601#1 -152763#3 152880#0 152813#0 153287#1 153226#0 153175#4 -152992#4 152806#1 153132 153327#1 -152828#0 -152879#0 153376#2 152346 -152771#3 -152861 152672#2 152697#0 153411#1 -153645#1 152307 -152219 152827#1 153440#4 -152860 -153402#1 152779#1 153157#0 153216#2 152758 -153331#2 -152874 -152935#2 -152827#1 152702#3 152827#2 153244#2 153289 -152772 -152578#1 153548#2 152943 152820#0 152978#0 -152802 -152935#4 152663#6 152937#0 152992#4 -152329 -153555#1 -152762#1 152377 -152956#10 -152135 152881 153254#0 152660#1 153292#2 -153409#3 -152666#3 152394#0 -152578#4 -152468#1 153605#1 -152509#1 153541#1 -152800 152399 153270#3 -152583#1 153402#1 152170#0 153007#1 153548#1 -152645#0 152606 -152806#1 -152792#1 152230 152971#1 153004#7 -152700 -152453#1 152602#8 153226#3 -153325#1 152460 152995 -152665#1 -152129#0 152609 152819#1 -152455#0 152663#2 -152890#0 -152601#2 152701#0 153304#1 -152534#1 -152666#2 152944#0 -152670#1 -152385 153549 152613 153165 152781#2 153411#2 -152672#2 152156#3 152832#6 152315 153265 153646 153513#3 152149#1 153096 -153435#2 153245#0 -152896#1 152464 152978#4 153293#0 -152798 -152832#3 152886 153249#0 153508 152935#5 152603 152787 152602#2 153650 153641 152418#1 153134 152642 -152813#1 -152758 152452#0 152304 152282 -152965#3 152858 153144 153119 153156 -152130 152819#0 152828#2 -152379#0 152707#1 152756 152578#0 152262 -152377 -152600 152663#9 -152879#1 153243 -152487#1 152161#1 -152698#0 -152808#5 -152163 -152650#0 -153401#0 152530#6 -152681#2 152602#3 -152937#0 152934#1 152376 153280 -152956#6 152216 153440#5 -153409#4 153240 -153409#5 153229 -152345 -152763#2 -152487#0 -152992#6 -152606 152611#1 152693 152770 153250#3 152763#3 153586 152869#1 -152663#1 -152171 152398#3 152645#3 153221#6 153409#16 -152791#1 153201 -153376#4 -152783#1 152288 153142 -152315 153000 153609 152452#1 -152993 152538 152278 152530#0 152812#4 -153409#1 153552 153327#0 152152#2 -152702#1 152940#2 152666#1 -152646#2 -153547 152956#10 -152613 152506 -152779#1 -152673#5 152817#0 -152680 153288#1 152487#2 -152701#1 -152808#3 152937#3 152383 152644#3 -152801#1 -152867 152665#0 153269#1 152393#2 152789 -153394#2 152316 -152891#1 152665#1 -152645#4 152697#5 152294 -152775 153212#1 152799 -152531#0 -152788#1 152457 152396 -152305 152266 -152394#2 152822 153150#1 153292#1 152788#1 -152215 152956#5 152656#0 -152944#1 -152876#0 153294#1 -152801#2 152810#8 153216#0 152673#1 -152382#2 152291 153509#0 152487#0 153545#0 -152695 152812#1 -152605 152387 153106 -152793#1 152689#2 152610 -152707#1 -152783#0 -152937#1 152673#4 152791#1 153138 152874 -152295 -152663#5 152133#3 152659 153283#2 152937#4 153392#3 152308#1 153221#2 152697#3 -153487#0 -152644#1 -152962#0 152165 153513#1 153200 152824 152934#2 153544#0 153110#0 153148#0 153245#1 -152583#3 152670#1 152856 153216#4 152763#2 152156#0 -152954 153133 153409#11 -152285 -152820#0 -152609 152792#0 152965#1 152530#4 -152663#8 -153325#2 152823#0 153555#3 -153635 -152392#1 153275#0 153550#2 152891#2 -152785#2 152956#3 152130 153489 152476 153602 -152460 -152672#1 153225 153277#1 153241 -152644#4 153269#2 -152159#1 152689#1 153194 152970 153197 -152459#0 152689#0 152801#0 152697#1 152810#1 152128 152940#0 152682 152707#2 -152690#1 153279#0 153371 153191#0 -152792#0 -152650#3 -152643#2 152698#0 153651 152828#3 153224#0 152455#0 153109 153267 152152#0 -152658 -153544#2 152792#1 152150#2 152415#0 153002#0 -152866#1 153401#3 152933#3 153394#1 152873 -153636 152359#3 153155 152700 -152828#5 -152417 -152944#0 152890#0 -153544#0 152955#1 153291#1 -153007#0 -152862 153516 -152813#2 -153370#10 152349#1 152810#9 153331#3 -152530#0 152785#2 153279#1 153171 153325#1 -152868 152155#3 -152697#2 152382#3 153648 152357 -152936 152140 -153545#2 152663#4 -152131#1 152810#11 -152787 -153004#6 -152530#4 152133#5 152530#2 152810#6 153283#1 153173 -152651 153584 -152898#0 -152597 153282 153439 -153395#0 152936 -152161#1 -152697#3 152992#3 152803 -152855 -153007#1 -152754 -152170#1 153105 153545#2 152448 -152872 -152673#0 152643#0 152170#1 -152941#2 152578#1 152775 152663#3 -152646#0 152866#4 152599 152679 -152660#6 152808#2 -153396 153550#1 152776 153118#1 -152824 -153394#3 -153546 152866#3 153476#7 152965#0 -152711 -152809 152964 152591#1 -152583#2 -152698#1 152156#4 -152672#0 152305 -152187 -153409#10 153145 -152763#1 152963 -152785#3 -152866#0 -152664#1 152669 -152869#3 -152165 -152811 152159#0 -152945 153302 152794 152360 -152501 152708 152694 -153440#4 152414 152350#1 153411#0 -152343#1 153294#2 152378 -153392#2 152494 152956#7 -152664#2 152832#4 -152962#1 -152780#1 -152644#6 -152967#4 152703#0 153254#1 152880#1 152895#0 152705#1 -152458 152133#0 -153409#16 -152668#1 152861 -152418#1 152978#1 153222 153213#0 152785#3 -152673#2 152135 -152675 152814#0 153545#1 152602#9 -152668#2 152934#0 153175#1 152654#0 152578#3 153605#0 152661 152607#0 -152790 152764 -153370#12 152869#2 152650#0 -153397 152763#1 -152865 152453#0 152971#3 -152782 153376#3 152166#1 -152932 152810#4 153509#2 -153411#2 153316#0 -152394#1 152797 153544#1 -153376#1 -152819#2 153287#2 152666#4 152785#4 152155#2 153117 153264 152813#3 152586#2 152771#5 -152394#3 152660#0 152810#7 153150#0 -152894#2 -152451 -152883#2 152961#0 152771#4 153152 -152660#4 -152598 -152789 -152697#4 152146 152785#1 -152697#0 152763#0 152859 152650#1 152660#3 153227#1 -152677 152664#2 152267 153617 -152202 153296 -152897#1 153172 153139#2 152854 152955#3 152891#0 153115 152651 -153269#1 152462#0 152864 -152984 152667 153270#4 153099#0 152894#2 152643#2 153392#2 -152983#2 152313 -152810#2 -152776 -152879#2 152531#4 152530#7 152292 -152810#5 152156#2 153410#1 -152602#3 -153555#2 153079 153375 -152885 152394#2 152809 153300 -152765 153298#1 -153550#2 -152895#1 152612 153370#10 153582 152217 -153269#2 -153411#1 153286 152159#1 153394#2 -152702#3 152783#0 153370#11 153167#0 152133#1 -152961#0 153293#2 -152766 -153331#3 -153437#2 152151#0 153125 -152810#9 152487#5 152853 -152611#1 152832#5 152663#8 152855 -152663#4 153223#1 152882#1 -153409#6 152961#1 153175#0 -152826#2 152343#1 152590 152812#5 -152771#2 -152935#0 152604 152941#2 153507#0 152774 152293#1 -152447 -152943 -152814#0 152781#1 152648#1 -152212 153268 -152416 153248#2 -152712 -152995 152967#5 152583#0 153137#0 153073 152878 153509#1 152308#3 152505#0 -153555#3 152879#2 152698#1 153220#2 152658 -152653#1 -152810#0 152812#0 -152664#0 -152287 152883#1 152780#0 153414 -152880#1 -153410#1 152459#1 152832#0 153433 153220#3 152677 -152709 -152832#0 -152643#1 153114#0 153245#2 152468#0 153400#1 152602#1 -152908#8 152827#0 -152702#2 -153400#1 -152804 152644#5 -152659 152890#1 152828#0 153397 152581#1 153151 153634 -152956#5 153295#1 -152888#0 153306 153409#7 -152380 152944#1 -152983#0 -152466 152707#0 153269#0 -152230 -152819#3 152832#2 -152225 152771#2 -152384#1 153544#2 152666#0 153246 -152808#4 152832#1 -152650#2 153513#4 152155#4 152572 153247#0 -152882#0 152583#2 152542 152702#1 152393#0 153409#4 -153433 153277#0 -152795 -152933#0 152645#5 -152891#0 -152793#0 -153634 152578#2 -152866#4 153555#1 -152895#0 -152956#1 -152934#1 152984 152707#3 153622 -152854 -152382#1 -152350#0 -152992#8 152778 -152779#0 152941#0 152509#1 152602#7 152486 -152941#0 152767 153297#0 152133#6 -152644#3 152581#2 152149#0 153244#1 152971#2 152277 -152832#2 152454#0 152826#2 -152266 152894#1 152680 152649 153130 153154#0 153515#1 153392#1 -152956#8 153635 -152666#1 153331#2 152385 152456 -152161#0 152189 152985 152860 -152810#6 -152882#1 -152778 152530#5 152817#2 152896#1 -152376 -152280 152531#1 152534#1 152301 152769 152702#0 152810#5 -152580 -152796 -152814#1 153612#0 153561#0 153271 -152393#2 153139#1 -152857 152978#3 -153410#0 -152859 -152703#0 152605 153610 153114#1 -152586#0 152394#3 153409#15 153214 -153435#0 -152866#2 -152817#2 152589 152942 152382#2 153146#1 -152774 -152877 152956#1 153409#10 152449 152819#2 152602#0 152992#2 153278 152133#4 -152217 -152663#10 152296 152314#2 153198#1 152863 -152670#0 -152542 -152812#2 153124#1 153411#3 -152660#1 -152935#5 153548#3 152600 152151#2 153226#1 152202 153175#2 152883#2 -152705#1 -152159#0 -152381 152956#2 152660#4 -152856 152392#1 152807 153285 153292#0 -152462#0 152702#2 152866#5 -152653#0 152956#4 -152531#4 -152828#4 152697#2 153550#0 -152603 -152487#2 152585 152879#1 -152873 -152643#0 152398#0 153331#1 153270#2 152505#1 -153401#2 -152869#0 -152601#0 -152797 153409#3 -152666#0 -152414 152672#3 152771#0 153099#1 153550#3 152895#2 153556 152663#10 152759 152875#1 -152476 153250#4 -152653#2 -152710 152772 152684#0 152308#0 -153472#0 153492#3 152349#3 153072 -152705#0 -152343#0 -152810#11 152482 -152690#0 -153409#14 152819#3 -152579#0 -152871#1 -152963 -152642 152578#4 152645#1 -152828#3 -153410#2 152499 -152607#0 152654#1 152937#2 152967#4 152219 152280 -152930 -153554 153409#14 152690#1 -152645#1 -153476#7 153507#1 152447 -152704#0 152314#4 -152382#3 152133#2 153158 153248#0 152678#2 152897#1 152673#0 -152382#0 -152665#0 -152456 152992#7 152832#3 152349#4 152783#2 153592#1 153199 -152602#7 152872 -152531#6 152709 153166 -152663#6 -152684#2 152644#0 -152941#1 -153550#1 153288#0 153487#0 152712 153160 153216#1 -152646#1 -152644#0 152673#5 152656#1 152697#4 152885 153101 -152679 152650#2 152655 -152602#6 152876#1 153154#2 -153556 152156#1 153153 -153395#1 153071 152458 153591 -152820#1 -152697#1 -153392#0 152647 152877 152343#0 -152803 152817#1 152468#1 152454#3 -152819#0 153113 153139#0 152509#0 -152391 152941#1 -152876#2 -152817#1 152664#1 -152611#2 153583 -152530#5 -152937#3 153110#1 -152578#0 -152654#1 152419 152801#1 153159 153147 -152222 -152956#4 -152780#0 153193 153221#5 152675 153135 -152956#7 -152783#2 -152810#3 153541#0 152956#8 153581 152611#0 153395#0 -152602#1 152510 -152131#0 -152704#1 152131#0 -152379#1 152992#6 152762#1 -153394#0 -153376#2 -153550#3 -153409#11 -152894#0 153284#2 152828#4 152810#0 152875#0 152212 -152815 -152823#1 153376#1 152806#0 -152814#3 153146#0 -152707#0 -152864 -152296 153210 152815 152701#1 152225 152382#0 152896#0 -152967#5 152930 152611#2 -152674 153409#6 -152455#1 152648#0 -153370#11 -152662 -152383 -152301 -152832#5 152653#1 -152785#0 153547 152805 152704#1 -152992#7 153211 153304#0 -152286 -152128 152955#2 -153409#15 153647 -152992#3 153325#0 152454#1 153219 -153555#4 153409#1 -153401#3 -152812#1 153123 -153400#0 -152934#0 152932 152983#2 152394#4 -152672#4 153228 -153327#0 152359#1 152699 -153392#4 153007#0 152779#0 153080 152645#0 152933#4 152762#0 152151#1 152645#4 152810#10 152453#1 152349#2"/>
    <!-- id="14" name="Roquebrune-Cap-Martin" -->
    <taz id="14" edges="153374#2 -152554#5 -153564 152302#1 153016 152436#1 -153365#0 152435 -152437#0 153367#3 153624#0 152342#1 153235 153367#2 152577#3 -152333 153529#0 -153476#6 153351#3 153351#2 -152571 152508#4 -153367#3 152581#1 152557 152514 153339#2 -153487#0 -152968#1 152571 153089 -153011 -153359#3 -152556 -152244 152204 -152583#3 152335 153529#1 -152554#1 -152549 153353#2 152141 152341#1 -152235 -153319#4 152577#0 -153374#0 152488 152254 153083 153361#3 152564 152302#0 -152585 152547 153345#2 153012 153358#0 152205 -153345#0 153529#3 -152523 152572 153319#0 153374#1 -152565 152169 152583#2 -153377#3 -153351#0 -153018 -153348 -153350#0 153011 -153481#0 -153370#0 -152562#0 153377#1 -153013 152556 153368#4 152512#1 153372 152461#1 152574#1 -153350#1 152548 -152558#1 153014#2 153232#0 153542 153624#1 -153351#4 153371 -152546 153573 152242 -153349 153355#0 152581#2 153359#0 152575#0 153614#1 -153357#1 153366#0 153052 -153319#3 153367#0 152968#0 -152575#1 -152279 153344#1 -153481#1 -153339#1 -152564 -152577#0 -153347 152268 153377#3 -153354#1 -153354#0 153481#1 -153576 -153319#0 -153372 153529#2 152244 153319#1 -153339#2 -152541 153320 -153574#1 -153319#2 152512#0 -153322#1 153362#1 -152161#0 -153353#1 -152614#1 152189 -153322#4 -153360#1 153361#4 153232#1 -152280 152554#2 -152461#0 153350#0 -152580 -152216 152575#1 -153357#0 153537 -153015 -153356#0 152579#0 -152238 -152336 -153343#2 -152437#1 153363#1 -152168 -152242 153090#0 153359#2 -153345#4 -152211 152990#0 153368#1 153476#0 152522 -152332 152579#1 -152558#0 -152436#0 153476#6 -152337 -153322#0 153090#1 -152141 153345#3 153056 153345#4 -152217 152561 -152544 -152552 -152555 153354#1 -152559#1 152968#2 -153377#2 153010 153377#2 -153358#0 153087#1 153093 -152237 152554#3 152546 -153368#0 -153346 153348 152330 153319#3 152437#1 -152553#1 153350#2 -152573#0 153344#2 152577#4 152508#2 153215 153502 152558#1 153195 -153344#0 153476#5 -153014#2 152210 152346 153476#3 -152488 152237 153366#1 -153357#2 153017 -153481#3 152235 -153344#2 152585 -153366#1 152559#0 153357#2 152558#0 -152559#0 -153476#1 153015 153623 -152966#1 -153074 -152461#1 -152988 153347 153367#1 -153542 153360#0 153354#0 153476#7 -153056 153319#4 -153476#2 153370#0 -153319#1 -153363#0 153355#1 152508#1 -152574#1 153085 -152583#2 152515 153233 -152990#0 153234#2 -153010 -153359#0 -153377#1 -152187 152565 153321#2 152303 153481#3 -152303 153377#0 -153368#4 -153367#0 153501#0 152550 -152991 -153481#4 152517 153349 153377#5 153590 153192 -153321#2 152214 152436#0 -153476#5 152554#5 153231 -152484 -152331 152577#2 -152579#0 153652 152562#0 153339#1 -153352 153543 153377#4 -153016 152280 152989#1 152990#1 153364#0 153339#3 -153017 -153476#7 153346 -153481#2 152523 152555 153321#1 152990#2 153343#2 -152968#0 153359#1 152543 153365#0 -153344#1 -152573#1 -153551 152966#0 -153488 153353#0 -153339#0 -153476#0 152539 -152437#2 -153365#1 -152214 -152966#0 -153343#1 152545 152554#1 152573#3 153488 -153374#2 -153353#2 153481#0 152583#3 -152469 153357#1 152989#0 -152436#1 152271 153014#1 153574#1 153503 -152553#0 -152437#3 -152344 153374#0 -152554#6 153358#1 152544 -152554#3 -152560 153487#0 -153350#2 153234#1 -153014#1 -152561 152270 -153362#0 152577#5 152437#0 -153374#1 -153379#5 -152573#3 153362#0 -153321#0 -153377#5 153481#2 -153355#0 -153367#2 152243 153343#1 153501#1 -153361#1 153504 153322#3 -152435 153339#0 -153345#3 153481#4 152241 -152543 153369 153082#1 153487#3 -153341 -152540 152578#0 152540 152986 153091#1 -152579#1 -152239 152279 153574#0 -152547 -153009 -153339#3 152333 153614#0 152215 152552 153341 153345#0 -152243 -153377#4 -153351#3 152216 152341#0 -153321#1 -153359#1 -153353#0 153572 -152522 -153320 153091#0 -152578#0 153322#1 152337 152560 153322#2 -153008#0 153359#3 -152554#0 -153342 153087#0 -153476#3 -152986 152344 152577#1 152573#2 152541 152966#1 152573#4 -153361#4 -153359#2 153319#2 153086#0 153368#3 -153355#1 -153369 -153377#0 152336 152469 153084 152516 152168 153351#0 152437#2 153322#4 -153052 -153358#1 -153367#1 -153014#0 153361#0 -152209 -152554#2 -153363#1 152580 153345#1 -153364#1 -153367#4 152211 153351#1 152238 -153364#0 -153343#0 -153361#3 153574#2 -153573 152513 153588 -152577#4 152508#3 -153345#2 153082#0 -153368#2 -153574#0 152212 -153368#3 153196 152554#6 -153574#2 153342 153551 152217 -152968#2 153092 153576 -153572 -152573#2 153088 -152539 -152341#0 -152557 -152335 -152551 -152577#1 -152577#3 153365#1 -153322#3 -153322#2 152614#1 -153351#2 153476#4 152437#3 152968#1 152255 152559#1 152334 -153361#0 152484 -152989#0 153351#4 152461#0 152549 152991 152332 153356#0 -153368#1 153360#1 153368#2 153018 -152241 153008#1 153367#4 152562#1 153353#1 -153351#1 -153362#1 -153360#0 152239 -152169 153364#1 -152990#1 -152575#0 -152212 153343#0 153074 153014#0 -152341#1 -153476#4 153476#1 153086#1 -152989#1 152272 -152577#2 -152577#5 152553#1 -152215 153350#1 -152240 -152573#4 153357#0 -153012 -153345#1 -152548 153344#0 -152562#1 153600 152269 152573#0 152573#1 153476#2 153363#0 -153487#3 153361#1 -152953 152273 153564 -153543 153356#1 -152334 -153366#0 153013"/>
    <!-- id="13" name="Beausoleil" -->