
<tazs> 
    <!-- id="33" name="gw33" -->
    <taz id="33" edges="152273 152272"/>
    <!-- id="45" name="gw45" -->
    <taz id="45" edges="152554 153656"/>
    <!-- id="34" name="gw34" -->
    <taz id="34" edges="-152543 152547 -153345 152543 152193 153346 -152547 153345 -153346 -152191"/>
    <!-- id="44" name="gw44" -->
    <taz id="44" edges="152574#1 -152574#1"/>
    <!-- id="43" name="gw43" -->
    <taz id="43" edges="-153436 153436"/>
    <!-- id="32" name="gw32" -->
    <taz id="32" edges="152525#0 152323#1"/>
    <!-- id="42" name="gw42" -->
    <taz id="42" edges="-153452#0 153452#0"/>
    <!-- id="41" name="gw41" -->
    <taz id="41" edges="-153460 153460"/>
    <!-- id="31" name="gw31" -->
    <taz id="31" edges="-152191 -153478 152193 153478"/>
    <!-- id="1" name="Monaco" -->
    <taz id="1" edges="152654#3 152664#0 -152667#4 -152681 152387 -152877 -152293 -152605#0 -152234 152472#0 153585 153100 152969#2 153225#3 153444#5 153511#2 153006#0 152137#1 152708#1 152153#1 152497 152701#3 153220#0 -152987#2 153131 153231#0 153178 -152677#0 152503 152831#0 152937#4 -152832#6 152682#1 152648#1 -152386#2 153396#0 -152899#1 152665 -152135#0 -152491#5 153413#11 153380#5 153398#0 -153398#0 153245 153227#0 -152701#4 152333 153081 153129 152960#2 152386#1 152975#4 -152934 -152899#0 -152612 153221#1 -152582#0 153274#1 153380#0 153146 -152606#7 152832#2 -152221 -153380#0 152711#2 152660#0 153130 -152693#2 152298 152535#0 152871 -153380#4 152206 152398#2 -152790 -152996#3 -152869 152785#0 152363#3 153554#3 -153549#1 152941#4 153205 153517#1 -152788 -152794 -152937#3 152699 -153413#14 -152706#3 152491#3 152706#3 152941#2 153232 152877 153517#4 -152685#2 -152706#1 152361 -152396#1 -152761 -152827#0 152814#11 -152463#0 153491#0 152318#3 152831#2 152165#1 -152455 152702#1 152458#3 152605#2 152959#5 153626 152982#3 153249#0 153220#2 152881 152825#1 -152830#0 152153#2 -152677#2 153008#6 153398#3 152219 152421 152658#1 -152873#1 153273#1 153380#3 152170#1 152874#1 -152859 -152397#1 152652#1 152894#0 153166 -152938#0 152799 153559#4 153586 -153008#6 153077 152887#2 -152538#0 153273#0 -152206 152820 152817#3 153172 -152960#5 153565#0 -152960#6 -152701#2 152163#0 -152814#5 -152711#0 152160#0 153258#0 -153273#2 153197 152647#2 152821#0 153329#1 152386#0 153308#0 152939#2 152794 -152169 152829 153548#2 -153414#0 152669#0 152538#1 153595 -153406#2 152941#1 152396#1 -152817#0 -152701#1 152459#0 152223 152513#1 152546 152312#2 153520 152676#4 -152667#5 152898#0 153221#0 -152582#2 152649#2 -152605#1 -152894#1 152159#1 152174#1 -152694#1 152402#3 152648#5 -152535#6 152667#10 -152697 -153335#3 152801 -152960#8 153299#0 152867 -152705#0 -152715 152158#0 152947 152945#0 -152780 152657#0 152998 -152793 153374#11 -152821#1 153616#0 153559#1 153297#0 152779 152949 153552#3 152818#1 152297#0 152583#1 152701#2 152883#1 152758 152650#2 -152538#1 153279#1 153552#1 153148 -152989 153405#0 152836#6 152716 152714 -152812#1 153649#0 153114#0 152937#3 -152796#1 152821#2 152398#4 -153399#0 -153273#0 -152814#1 -152398#1 -152960#7 152781 152836#0 153280 -152513#0 -152912#8 152593 -152816#4 153415#3 -152389 152159#4 152318#2 153380#2 153251#1 153159 152988 -152812#4 152677#4 152941#0 153216#0 -152611#0 -152937#2 152805#2 -152772 152894#1 -152654#2 -152799 152959#2 153126#0 -152457#1 152960#1 -152462 -152706#2 152669#1 152948#1 152661 -152787#2 152865 -152831#1 153444#3 152969#3 153413#14 152937#0 -152668#1 153548#0 -153558 153398#1 152859 152664#3 152383#1 152896 153230#3 152587#1 153406#2 -152299 -152870#1 152816#4 -152347#0 -152685#3 -153405#0 153591 -152270 -152714 152784#0 153551 152899#2 -152830#2 -152816#1 -152857 -153415#1 152664#4 153253#0 -152774 152582#3 153229 153302#0 152869 -152670#1 153127 152768 152663 153398#2 152808 152996#2 152585#1 -152880#0 -152298 153438 153004 152969#1 152688#1 152880#1 152672#1 152534#2 152789#2 152832#0 -152789#0 -152669#1 -152887#1 -152584 -153329#3 152880#2 -152649#5 153254#2 153513#1 -152542 153415#0 -152613 -153444#4 153609#0 153621 -152615#2 -152775#0 152611#0 -152604 152386#3 -152163#1 -152648#5 153406#0 152606#4 153308#1 -153335#2 153554#2 152383#0 -152821#0 152810#0 153418 152464 152193 152899#1 152982#4 152381 153161#1 153651 152996#6 153141#0 153590 152775#4 -152590#0 152707#1 152823#1 153288#2 153607 153271 152813 -152579#0 -153413#3 -152615#0 152664#5 152491#1 152457#1 -152672#1 -152777 152354#0 152604 152786 -152816#2 152651 152819 152860 152968 -152936 152498 152312#3 -152827#1 152150 -152133#0 -152534#4 152711#3 -152648#6 152676#3 153149 153308#2 152667#8 153299#2 153169 -152606#9 -152670#2 -152966#0 152317 153446 -153439#2 -152816#3 152670#0 153549#2 152874#2 -153414#1 -152898#2 -153548#0 152858 -152472#1 152134 -152940 -152398#0 -152648#4 -152308 -153413#0 152617 152615#1 153215 -152674#1 -152421 -152887#2 153413#8 -152817#2 -152381 -152965#1 -152708#1 -152583#1 -152167 153437 153112 -153556 153252#2 -152885 153228#0 -152647#0 152582#0 152457#2 -153554#0 -152422#0 -152170#0 -152653 152160#4 -152688#1 153198 -152583#0 152589 152673 -152174#0 153613 -152818#2 153117 152817#0 -153415#2 152694#1 -152889 -152686 153413#3 153226 152660#1 152960#6 -152949 152706#0 152796#0 -152669#0 153415#2 153223 152935 -152767#3 -153413#12 -152708#0 152153#4 -152289 152174#0 -152682#1 152803 -152996#8 153560 152649#0 -152677#1 152960#10 -152696 153150#1 152777 153288#0 152386#2 -152902#0 153400 152816#5 -152668#2 153413#0 152395 152830#2 -152648#2 152289 152832#4 152353#2 153521 -152965#0 152767#3 152885 -152398#4 153161#0 153615 153107#0 153283#0 153099#0 153270#0 -152798 153292#0 -152664#6 -152814#2 152615#2 152701#1 -152797#1 -152664#1 152347#0 152775#2 153439#0 -153413#1 152874#4 152814#3 153225#4 152942 153415#1 153512 153274#4 -153404#1 152943#1 153287#0 153302#1 -152775#5 152836#4 152792#0 152814#1 -152831#0 153413#9 -152226 152771 -152701#5 -152900#1 152607 -152292 -152873#3 152157 153320#0 152987#0 153513#0 152292 153253#1 -152814#9 152818#0 152670#4 153329#0 153331#0 153248#0 -152832#5 -152787#1 152454#2 -152881 -152880#2 153179#0 -153559#0 152293 152603 -152898#1 152419#1 -152354#0 -152937#0 152765#0 152385 -152667#3 -152792#0 152776 152814#4 152668#2 153126#2 -152459#0 -152867 152943#0 -152480 -152884#1 -152884#0 152814#2 152159#5 152398#3 -152812#0 152606#9 153297#1 -153329#2 -152783#0 -152679 152156#2 152615#0 -152987#1 152353#4 -152460 -153413#13 -153559#2 -153406#0 153297#2 152463#1 -152939#0 152155#0 -152654#0 -152682#2 -153374#12 152579#0 153176 152396#2 -152216 153329#3 -152705#1 152879#1 152939#5 152422#1 -152948#0 152677#0 -153335#1 -152941#1 -153548#1 152458#1 153653 -153337 -152658#0 152939#1 153301#1 152900#0 152707#0 153244 -152667#2 152167 152534#6 -152683 -152535#2 153011#0 -152606#2 152364 152455 152684 152677#1 152388#1 152287 -153480#7 152676#0 152824#0 152685#2 152999 153517#0 -152883#1 -152810#1 -153004 153118#0 152674#0 152895#2 -152361 153158#1 -152420 -152870#4 -152713 152137#5 153290 152667#6 153549#0 152831#1 152422#0 152784#1 152510 -152775#4 152363#1 153254#3 152688#0 -152670#4 152657#2 152969#0 -152760 -152667#7 -152651 152391 152982#0 152982#2 -152191 153107#1 152767#1 -152783#1 152870#3 153443 153154#0 -152385 -152817#3 152389 152702#0 152938#1 153228#1 -152609 152965#1 152960#7 153517#3 153284 152807 152613 153152#2 -152836#1 152872 -153398#3 152659 -153548#2 -152463#1 152810#1 153285 152587#3 -152758 152601 153511#1 152582#2 152282 152296 153151 152648#4 152456#1 -152996#7 152814#7 152936 -152603 152887#1 152802 152137#7 153279#0 153519#1 -152996#4 153136 152782 153075 152874#5 153270#1 152649#5 -152665 -153380#3 152397#1 -152220 152305 -152654#4 152765#1 152662 -153491#0 153380#4 -152865 152160#1 152650#1 153230#1 -152825#1 -152688#2 152701#0 152814#0 153203 152989 152648#6 153413#5 -152648#1 -152773 -152784#0 -153413#10 152291 -152813 152542 153649#1 -152971#4 152825#0 152614 -152709#1 -153476#0 152653 153224#0 152890 153645 153143#2 -152590#2 153157 152220 -152814#6 152423 152824#1 -152895#0 153150#0 153258#1 -152801 153292#1 -153374#10 -152290 -152997 -152608 153121 152836#1 152606#3 153175 152941#3 153296#1 -152165#1 152312#1 -152139 152670#1 152760 -152648#0 153254#4 -153380#2 152380 152608 152948#0 -153379 -152593 -152823#0 153609#1 -152941#0 -152836#6 -152947 152308 153639 152884#1 -152664#0 152966#1 153294 153596#0 -152702#1 153162 153405#1 -152999 152534#4 -152349 153250 152534#0 152137#6 -152971#0 153549#1 152459#1 152862 -152892#0 152873#0 152398#1 153396#4 -153398#1 152814#5 152814#6 152388#0 -152716 -152587#2 153254#0 153289 -152676#3 152987#2 153283#1 -152858 152153#0 153177 152486 152132 153252#0 153113 -152969#3 152584 152311 152902#0 152457#0 -152606#1 153379 152654#4 153225#5 -152396#2 -152766#1 153298#0 152418 152868 152509#0 -152817#1 152996#4 -152806 -152828 153217#1 -152795#1 -153413#11 153116 152654#2 152711#0 152677#3 -152219 -153331#1 152509#1 152576 152652#0 -152659 -153405#3 152535#4 -152792#1 -152892#1 152789#3 -152941#3 -152960#10 153249#2 -152615#1 -152398#3 152594 152677#5 -152601 152585#2 152818#3 -152815 153158#0 -152582#3 -152967 -153406#1 -152804 -152534#2 -152400 -153549#2 152787#1 -152470 -152662 -152878 153179#2 152816#3 153118#1 152934 -152135#1 152826 -152782 153230#2 152153#5 -152347#1 152704 152363#0 153225#2 -152810#2 153399#1 -152887#0 152944#0 153122#0 -152386#1 152270 -152769 153252#1 152816#1 152889 152780 152836#2 153249#1 152135#0 -152830#1 -152808 152678 152793 153201 -152664#5 -152672#2 153511#0 -152677#5 152701#4 153171#0 -152901#1 153606 -153441#2 153293 -152602 -152663 -152789#2 153140 -152649#1 153170 152453 -152688#0 152667#3 153103#0 -152491#0 153299#3 152832#1 -152873#0 -153549#0 -152779 153008#7 152491#5 153109 153214 -152948#1 152162 -152391 -152802 152610 -152939#1 152789#0 152156#0 152154#2 152137#4 -153418 -152875#0 152144 152590#1 152767#2 152648#2 -152886#1 -153559#1 -153413#9 152974 -152938#1 153413#13 152982#1 153165 152230 152271 -152694#0 -152969#1 153638 -152383#0 152812#5 152490 153275 152817#2 152670#3 153300 152349 152693#0 152878 -152657#1 -152607 152616 152762 -152649#3 -152165#0 152668#0 -152648#3 152876 153295#0 152873#3 -152535#1 152491#2 153413#1 -153006#0 153545#1 152169 -152587#0 153310 -152535#4 152879#0 153331#1 152468 152606#0 152870#4 152800 152451 153518 152535#2 153375 -152616 -152821#2 153414#2 153306 153141#1 153406#1 153413#16 153134 152836#3 -152803 152864 153552#2 -152775#3 152814#9 -152398#2 -152667#9 -152684 152775#5 -152818#1 152832#6 -152670#0 -152472#0 -152941#2 153550 -152534#7 -152701#0 -153413#7 -152452 -152870#3 -152937#1 152654#1 -152896 -153396#2 152823#2 152892#1 152460 153225#1 -152606#4 152606#7 153218 153220#3 152155#2 152159#3 -152291 -152535#0 152944#2 152971#5 -152491#3 -152486 -152960#4 -152610 -152836#5 153296#2 152171 -152175 -153554#1 152857 152996#5 -152816#0 -152832#0 153268 152818#2 -152969#0 153080 152647#0 152945#1 153617 152170#0 152155#1 152898#1 152175 152898#2 152693#2 -152824#0 -152836#2 152681 153281#1 -152589 -153554#2 152901#1 -152939#2 152650#0 -152162 153559#2 153154#1 152787#2 152679 -152766#0 152320 152400 -153413#4 -152676#4 152816#2 152153#3 153654 -152655 153614 152649#4 153587 -152617 -152832#2 -153380#1 152773 153138 -152699 153272 -152657#2 152711#1 -152606#5 -152667#8 -152971#5 152715 152454#1 152137#3 -152836#4 -152710 153301#0 -153415#0 152966#0 152775#0 -152223 152832#3 152281 -153413#8 -153414#2 153179#1 -152805#1 152812#3 152683 153589 153444#4 152491#0 -152814#10 152667#11 153105 -152900#0 152696 152797#0 153115 -152895#1 -152587#3 153401 152816#0 -152987#0 -152667#10 152817#1 -152767#2 -152787#0 -153559#3 152766#1 -152781 -152939#5 153413#12 -152606#0 -152863 -152814#0 -152605#2 -152775#2 -152505 152534#5 153304 152946 152814#8 -152163#0 153413#4 -152805#2 152137#2 153298#1 -153640 -152646 153405#3 152649#3 152463#0 -152647#1 -152491#2 -153335#4 152419#0 153399#0 152456#0 153335#2 153413#10 153291#2 153195#1 152900#1 152319 152959#1 -152875#1 -153399#1 153553 -152466#1 152805#1 153650 152402#2 152697 -152224 -153398#2 152945#2 -152397#0 153287#1 -153650 152454#3 152535#1 -152812#5 -152582#1 152875#1 -152800 152883#0 153559#3 152676#1 -153331#0 152937#2 -152457#2 -152763 152811 153152#0 153548#1 -152650#1 -153559#4 152814#10 153114#1 -152832#1 152154#1 -152966#1 -152614 152812#1 152657#1 152300 152685#3 152836#5 153163 152960#8 153227#1 -152789#1 -152534#0 153282 -152388#0 -152960#2 153156 152960#5 152888 -153444#3 152899#0 -152132 152534#7 -152823#1 153153#0 152959#3 -152693#0 153655 -152685#0 -152451 -152767#1 152971#4 -152698 152265 152973 153143#0 153414#0 -152174#1 153248#2 -153008#7 153496#3 152667#1 -152818#0 -152836#3 153404#1 -153405#2 153083 152353#1 -152664#4 -152958 152667#4 153248#1 -152870#2 -152453 -152864 152712 152882 153646 152759 152770 152939#4 152886#0 152353#3 -152870#0 -153639 152666 153480#7 153320#1 153273#2 152266 153160 152884#0 -152709#2 152609 152606#1 -152762 -152418 152827#1 152996#7 -152832#3 -152789#3 -153374#11 -152894#0 153588 153269 152535#6 -153273#1 153224#1 -152701#3 152677#2 -152134 153337 -152832#4 -152939#4 153224#2 -152380 -152595#1 153110 -152814#8 153225#0 153230#0 -152590#1 152823#0 152606#5 -152711#2 153167 153413#7 -152457#0 -152812#3 152139 153329#2 -152676#2 152821#1 152612 -152654#1 152709#1 -152386#3 152297#1 152886#1 152297#0-AddedOffRampEdge 152646 -152664#3 152647#1 153158#2 -152831#2 -152673 152398#0 152785#2 153123 153274#0 152137#0 -152647#2 152996#3 -152809 152809 153274#2 153152#1 -152712 152402#0 152350 152295 -152534#6 -152305 -152364 152830#1 152688#2 152229 152967 -152996#5 153295#1 -152466#0 153011#1 -152388#1 -152861 -152230 152462 152667#9 -152836#0 152795#1 -153649#0 -152786 152670#2 -153396#4 152703 152959#4 152686 -153648 152454#4 152397#0 152863 -152791 152505 152582#4 -152888 -152770 152318#4 152789#1 152606#6 153254#1 -152670#3 -152587#1 152648#0 -152676#1 -152960#0 152975#3 152823#3 153335#3 153396#3 153155 -152812#2 152810#2 -153405#1 153396#1 -152703 152960#4 153076 -152873#2 -152229 152513#0 153414#1 -152395 152866 153231#1 152160#2 153493 152709#2 -152814#3 152397#2 -152397#2 152796#1 152216 -153396#1 152698 152812#2 152874#0 153153#1 152667#7 -153329#1 153195#0 -152767#0 152470 -152872 -152649#4 153133 152221 152787#0 -152811 152701#5 -152650#0 -152660#1 152284 -152880#1 153251#0 -152319 -152300 -152945#2 -152671 -152860 -153401 152791 153291#0 153298#2 -152823#3 153335#4 152713 152664#6 -152422#1 152682#2 152595#1 152965#0 -152796#0 -152546 153413#15 152987#1 -152883#0 152590#2 152606#8 152706#1 152384 153648 152135#1 -153649#1 153128#1 152299 152480 152798 -152606#6 153405#2 -152709#0 153287#2 -152883#2 153281#0 153101 152937#1 153596#1 153380#1 -152871 -152677#3 152870#5 152538#0 -152996#6 152382 -153550 152710 -152170#1 152655 152783#1 152870#1 153220#1 152672#2 -152702#0 152458#2 -153011#0 -152882 152783#0 -152606#3 -152309 -152711#1 -153400 153119 -152945#0 153142 -152140 -152333 -152383#1 152466#1 -152677#4 -152819 152832#5 153296#0 -152704 -153437 153396#2 153099#1 -152898#0 153335#1 153179#3 152649#1 152767#0 152940 153220#4 -152866 -152807 -152823#2 -153329#0 152452 152874#3 152667#5 -153415#3 -153011#1 -152810#0 -152945#1 152159#2 152587#0 152667#2 -152491#1 -152667#6 -152983 -152937#4 152160#3 152354#1 152290 152805#0 152827#0 152472#1 153652 153554#1 152870#2 153228#2 -152693#1 153439#2 152997 152797#1 152648#3 -152706#0 153202#1 153305 -152658#1 153299#1 -152667#1 153291#1 -152886#0 152664#1 153164 -152784#1 152875#2 153288#1 -152674#0 152705#1 -153404#0 -153396#3 153085 -153638 152870#0 152420 152766#0 153217#0 -152868 152873#1 152763 -152778 153143#1 152154#0 -152707#0 152159#0 -152384 152938#2 153545#0 152461 -152657#0 153103#1 -152464 152658#0 153231#2 153225#6 152812#4 152975#2 -152768 152772 152828 -152649#2 152602 153204 152318#1 153179#4 -152664#2 -152534#5 153106 -152668#0 -153551 152458#0 153554#0 152466#0 153616#1 -152468 152583#0 152693#1 152664#2 -152649#0 153247 -153413#6 -152666 -152650#2 152875#0 152605#1 152402#1 -153444#2 153267 152156#1 153139 -152660#0 -152988 -152890 152654#0 -152711#3 -152969#2 152309 153274#3 -152654#3 152789#4 153640 -152818#3 152161#1 -152789#4 153413#6 -152825#0 153171#1 153098#0 152706#2 153084 -152513#1 152514 152983 153286 152674#1 -152676#0 152224 152158#1 -152960#1 152944#1 -153413#15 -153553 152671 153137 -152661 -153554#3 152996#8 -153413#5 152668#1 152938#0 -152996#2 153556 -152805#0 -153560 152806 152347#1 153122#1 152785#1 -153396#0 152138 152286 152792#1 152960#3 -152582#4 152312#0 153374#10 152403 -152284 152606#2 152363#2 -152678 -152652#0 -153413#16 152778 -152960#3 -152824#1 -152387 152676#2 -152814#11 152705#0 153513#2 -152814#4 152761 153107#2 153233 -152876 153216#1 -152938#2 -152386#0 -152459#1 152873#2 153517#2 -152814#7 -152606#8 152163#1 -152776 -152797#0 152774 152775#3 152895#0 153111 153126#1 152975#1 153224#3 153552#0 152883#2 152587#2 152582#1 152234 -153439#0"/>
    <!-- id="14" name="Roquebrune-Cap-Martin" -->
    <taz id="14" edges="152259 152559 -152970#0 -153361#1 -153019 -152583#1 -153349#3 -152247 -152527 153324 152345#1 153370#0 152548 153239 -153012#0 152582#0 153480#7 153568 -152562#1 -152972#2 -152219 153357#2 -153345 153358#1 -152465#1 -153366#1 152576 153359#1 -152583#0 -153350 -153366#0 152336 -153355#0 152589 153096 153370#1 152563#0 -152579#1 153485#2 152972#2 152277 -153367#1 153364#1 -152473 153323#3 152544 -153351 153366#1 153093 -152439 -153383#5 -153370#0 152557#1 153354#0 152585#2 152348 153485#0 152337 153238#1 -152957 -153578#1 153618#0 -152582#0 152441#1 -152581#0 -152221 -153354#2 152283 152563#1 152562#0 -153056 -153357#2 -152246 -152243 -152526 152512#1 153506 153369#0 153349#0 153355#0 153492 153021 152172 153480#3 153237 153381#1 153323#2 153371#1 153354#2 153381#0 -152581#3 -153365#0 -153355#4 153348#0 -153347#1 153343#0 -152441#3 153485#4 152350 153371#3 -153353 152473 152972#1 153343#3 153381#4 152970#1 153491#0 -153372#2 153323#4 153095#0 -152218 152520 -152577#0 152339 152518 -153013 153381#2 -153485#1 153349#2 -153381#0 152972#0 -152551 -152565 153374#0 152242 -152558#5 152579#1 153372#1 152219 -153323#2 152276 -153018#1 153086#1 -153378#0 152512#4 153360#0 153628#1 152334 -153371#0 153349#1 -153348#0 -152569 -153325#1 -152145 -153365#3 -153326#3 152577#1 153357#1 153365#3 -152566#1 153508 153362#0 152994#1 153219 -153362#1 152488 153323#0 -153359#1 153592 152512#2 -152555 -152337 -152563#0 152562#1 -153381#1 153360#1 152560 152993#1 -153021 -152441#2 -153362#0 152543 -152568 -153492 152581#5 152558#6 153343#1 -152972#1 153235 -152548 152246 153348#2 -152994#1 153347#2 -152558#2 -152578#1 -152165#0 -153078 152216 152558#5 153016 153325#2 -152215 -152545 153533#2 -153348#2 152970#0 153352 -152557#1 -152577#2 153095#1 -152564 -152557#0 152221 153364#0 -153364#1 -152441#1 152215 152284 153088 153366#0 152577#4 -152348 153361#2 -153348#1 152558#3 -152556 -152345#0 153375 153365#1 152307 -152244 -152581#1 153019 152581#2 153480#4 -152339 153480#2 -152558#6 153363#0 -153378#1 152579#0 -153480#5 152274 153086#0 -152559 153087 152575 -152216 -153017 153326#3 153357#0 -153367#0 -153371#1 -153349#4 -153480#1 -152173 153326#2 153199 -153016 -153357#1 153363#3 -153370#1 -153359#0 -152553 153349#3 153326#4 -153485#0 153350 152248 153480#0 -153376 153090#1 153533#3 153015 -152558#3 -153480#2 -153485#3 -153326#4 -152340 152583#1 -153577 153014 -153372#4 -153480#0 153480#6 -153576 153365#0 -153480#7 -153364#0 152547 -153355#3 152581#4 -152972#0 -153358#0 153094#1 -152558#1 -153363#1 -153358#1 153368#1 -152577#4 -153326#1 -153372#0 152214 -153491#3 -153373 -152993#0 -153546 -152547 -153580 -152440#0 -152577#1 152306#0 152441#3 153347#0 -152589 153346 153485#1 -153485#4 153578#2 -152440#1 -152552 152346#1 -152558#0 -152994#0 153485#3 153351 152273 152516#0 -152213 152994#2 -153381#3 153533#1 -152992 152545 153547 -152577#3 -153355#2 -153578#2 153359#0 153378#0 153090#0 153018#0 -152191 152564 152440#0 153323#1 153378#2 -152995 -152561 -152335 153371#4 -153343#1 153371#2 153060 -153324 153362#1 -153485#2 153200 153238#2 -153060 153656 153354#1 152272 152618#1 -152345#1 152338 153594 152173 153361#0 -153326#0 -153363#0 152566#1 152306#1 152247 -153372#3 -153547 153373 153555 -152618#1 152521 -153555 152440#1 -152575 152587#3 -153325#2 152565 -153374#0 -153347#2 153022 153020 152345#0 153546 152275 152568 -153356 153378#1 153381#3 152552 152990 -153323#1 -153355#1 -153371#2 153604 -153347#0 152581#1 -152587#3 -153381#5 -152441#0 -152581#5 152566#0 153091#0 152439 -152220 152241 152441#0 -153578#0 -153368#1 153355#3 -153020 -153491#0 152585#1 -152307 153541 -152336 -152970#1 -152492 153365#4 152465#0 153505#1 -153480#6 -153343#2 152550 152239 153091#1 152492 -153326#2 152556 152583#0 152569 -153371#4 -152563#1 153236#0 153325#1 153533#0 152512#3 -152584 152517 152581#0 152581#3 153381#5 -153354#0 152527 -152242 153480#1 -153372#1 153348#1 152554 -153018#2 153505#0 153367#0 153491#3 -153349#1 -152172 152341 153577 -153480#3 153353 152995 152220 153094#0 -152341 -153568 153580 -152241 -153357#0 153196 153355#2 -153381#2 153480#5 153376 -152581#2 153372#2 152145 153627 -153371#3 152193 152558#1 -153343#0 153372#3 152553 153056 152551 153361#1 152577#2 153628#0 153363#2 -153346 -153352 -153354#1 152578#1 153326#1 153012#1 153507 153576 -152544 152993#0 -153361#0 153345 -153381#4 -153325#0 -152579#0 153018#2 -152550 152243 153349#4 -153480#4 152441#2 -153018#0 152526 -153349#0 -152248 153017 -152239 152549 -152284 -152566#0 153236#1 153358#0 -152990 152561 -152560 153343#2 153347#1 -153022 153618#1 152516#1 152465#1 -153363#3 153372#4 152208 -153368#0 152519 -153378#2 -153323#4 -153369#1 153097 152577#0 153368#0 -153343#3 -152245 153078 152209 -152587#2 152558#2 153369#1 -152993#1 152218 152245 -152543 152340 153089 -153365#4 153363#1 -153363#2 -152488 153578#0 152584 -153349#2 153355#1 153578#1 -152581#4 153018#1 -153015 -152465#0 152994#0 153092 -152338 -153323#3 -153369#0 153367#1 152258 -153365#1 153355#4 153371#0 152587#2 -153323#0 -153014 -152562#0 -153361#2 -153360#0 152577#3 -152283"/>
    <!-- id="13" name="Beausoleil" -->