
<tazs> 
    <!-- id="33" name="gw33" -->
    <taz id="33" edges="152272 152273"/>
    <!-- id="45" name="gw45" -->
    <taz id="45" edges="152554 153656"/>
    <!-- id="34" name="gw34" -->
    <taz id="34" edges="152547 152543 153346 -152547 152193 -153345 -152543 153345 -153346 -152191"/>
    <!-- id="44" name="gw44" -->
    <taz id="44" edges="152574#1 -152574#1"/>
    <!-- id="43" name="gw43" -->
    <taz id="43" edges="153436 -153436"/>
    <!-- id="32" name="gw32" -->
    <taz id="32" edges="152525#0 152323#1"/>
    <!-- id="42" name="gw42" -->
    <taz id="42" edges="-153452#0 153452#0"/>
    <!-- id="41" name="gw41" -->
    <taz id="41" edges="-153460 153460"/>
    <!-- id="31" name="gw31" -->
    <taz id="31" edges="-153478 152193 -152191 153478"/>
    <!-- id="1" name="Monaco" -->
    <taz id="1" edges="-152535#2 152587#0 153288#0 -152234 153201 153300 153252#2 153308#0 -152887#2 152649#0 153299#2 152265 153295#1 152305 152361 152312#1 -152828 153248#1 152701#3 152883#1 152654#3 -152682#1 153178 152153#0 -152767#2 153559#2 153296#2 153560 152457#2 -152647#0 152221 153251#1 152423 152707#0 152771 153320#0 153281#1 -152971#5 152674#0 152870#5 153648 -152647#1 -153329#1 152945#1 -152221 152491#3 153011#0 152153#5 -153399#1 153405#3 153274#3 -152858 -153004 152945#0 -152887#1 -152760 152648#4 153439#2 152803 152827#1 152819 153099#1 -153638 153517#2 -152672#1 152601 152797#1 152836#4 153496#3 -152971#0 -152606#4 152785#1 -152673 -152817#2 -152832#1 -152398#3 152317 -152960#3 152472#0 153379 -152165#0 -152781 152880#1 152299 152805#2 153283#1 152817#0 152996#4 -152587#3 152386#0 152667#3 153559#3 152789#0 152535#1 -152590#2 -153273#2 152836#2 152823#3 -152941#2 -152672#2 152789#4 152535#2 152937#1 152902#0 153301#0 152647#1 -152965#0 152609 -153418 -152948#1 152135#1 -152319 -152773 -152937#4 152814#6 -152701#2 153335#4 153329#0 -152305 -152664#5 153549#0 153296#0 152613 -152787#2 -152648#1 152758 152775#5 -153331#0 152668#1 152814#10 153164 153233 152137#0 -152867 153269 -152803 153552#3 153406#1 152776 152960#7 -152170#1 152817#1 152816#2 152132 -152677#2 153406#0 -152711#0 152318#2 -152582#0 153446 -152880#1 152160#1 152960#1 -153413#9 -152459#0 -152590#1 153274#0 152801 152806 152590#2 -152457#0 153290 152453 -152948#0 152870#0 -152220 153302#1 152701#0 -152648#4 153399#0 -152676#0 -152455 153109 153169 153140 -152996#8 152871 153548#0 152281 -152674#0 153279#0 -152815 152971#5 -152420 -153404#1 152419#1 152814#7 152938#0 -152775#4 -152805#2 -152683 152297#0-AddedOffRampEdge 152823#1 -152615#1 -152708#0 153216#1 -152606#8 152784#0 -152224 -152787#1 153268 -152807 153280 -153413#11 153254#4 -152999 152996#8 -152832#3 153114#0 -152579#0 153413#11 -152883#2 153549#1 152938#1 152765#1 -153401 152996#3 -153413#7 -152801 152220 152350 153517#1 152966#0 -153444#3 152286 152615#1 153224#3 152877 -152667#1 152161#1 -152617 152669#0 152816#3 152814#4 152965#1 153225#0 -152996#4 152676#4 153220#2 152171 152830#2 153270#1 153554#3 153267 -152387 153100 -152696 -152491#2 152534#6 152814#1 152894#0 152997 152818#0 153220#3 153136 153275 -152486 153413#9 153335#1 152670#1 152672#2 -152583#1 152153#2 153337 -152389 -152709#2 -153560 -153396#4 152534#4 153253#0 -152941#0 152816#5 -153553 153142 -152391 153413#5 -153559#3 -152827#0 153231#1 153380#5 152886#1 152825#1 153520 153245 152153#3 -152466#0 152670#0 -152649#4 -152693#0 152383#0 152650#2 -153649#0 152606#0 153254#0 152666 153396#1 152606#7 153550 -152817#1 152795#1 152765#0 -152354#0 -152936 152461 152858 -152534#6 152826 -152601 152664#0 -152667#9 -152670#1 152402#1 -152762 152606#5 152159#5 152658#1 152468 -152674#1 -153554#0 -152789#0 153649#0 153413#13 153137 152606#6 -152534#5 -152869 152505 153329#2 -152776 152875#0 -152813 152971#4 152975#3 153231#0 152300 153258#0 -152777 152657#0 -152542 -152655 153396#2 152658#0 -153380#3 152759 152936 152397#2 -152870#4 -152602 152585#2 153110 152870#4 153291#2 -152701#5 152873#2 153380#0 -152812#4 -152870#0 -152816#2 -152888 152491#2 -152836#1 152941#2 153148 -152996#2 152716 -152685#2 -153008#7 -152814#5 -153335#4 153118#1 -152892#1 152535#4 153282 -152705#1 152456#1 -152582#4 152491#0 -152814#2 153596#1 152887#1 -152766#1 -152174#0 153179#1 -152219 152814#2 -152832#5 -152873#2 -153380#0 153396#4 -152667#6 -152175 152824#1 152271 -152607 -153413#14 -152457#1 -152398#4 152387 152960#8 152386#2 152959#4 152653 -152657#1 152292 152388#1 153215 152885 -152677#3 152137#6 152809 -152669#0 152458#0 152616 152674#1 153122#1 153511#0 -152658#0 -152383#0 152503 152789#2 153179#3 152463#1 -152538#1 153123 -152688#1 -152818#2 153226 152868 152595#1 152967 153163 153121 -152667#8 -152670#0 152879#1 -152676#2 152944#2 152836#5 152800 153228#1 152879#0 152785#2 -152660#0 -152939#2 153231#2 153590 -152794 -152872 152816#1 -152901#1 -152395 152969#0 152223 152318#1 152660#0 152649#4 153171#0 -152863 -152191 -152814#1 153176 152787#1 152400 153103#1 153374#10 -152939#5 -152535#6 152654#2 152797#0 -153380#2 152898#0 153396#0 152713 152582#1 153252#0 -152397#1 -152966#0 153273#1 152959#2 -152712 -152823#1 153273#0 152787#0 153401 -152960#1 153225#6 -152890 152454#1 152312#2 152612 -153413#3 153548#2 -152664#0 153652 -152814#4 -152875#0 -153414#0 153283#0 152941#4 153158#1 153380#3 -153400 152542 -152884#1 152874#5 152874#1 -152466#1 153405#2 -152333 -152654#1 -152969#0 -152881 153113 -152513#0 153221#1 -153413#16 -152463#1 152870#1 -152133#0 -152654#4 153154#0 153274#4 152715 153177 152386#3 -153415#2 152654#0 152941#1 -152587#1 152381 -152866 152611#0 -152797#1 -153011#0 -152708#1 152874#3 153565#0 152693#1 152156#1 -152701#0 152832#3 -153413#15 -152899#1 -152894#0 -152694#0 152694#1 153308#1 -153329#0 153588 -152836#4 152813 152682#1 152775#4 -152960#10 152383#1 152386#1 152175 152787#2 -152701#3 -152870#1 152830#1 -152668#0 152688#1 153107#1 152874#4 -152162 -152789#4 153609#1 152968 -152139 -152809 -153439#2 153380#2 153413#14 152942 153250 -152535#4 153545#1 152606#3 -152309 152353#4 -152701#1 -152789#1 152777 -152299 153258#1 153310 153225#1 152657#2 -152349 -152814#10 152454#4 153621 153396#3 152421 152648#2 -152816#0 -152291 -152170#0 152353#3 152159#1 153216#0 152159#3 152711#1 153413#8 152959#3 152802 -152671 -152648#2 -152761 -152704 -153476#0 152939#2 152663 152646 153254#1 153179#4 -152832#2 152648#6 153413#4 153298#0 -152546 152701#5 -152648#0 153107#2 -152792#0 153150#1 153292#0 152216 152602 153130 152818#1 152150 152480 -152795#1 -152216 -152818#0 152959#1 -152174#1 -153554#1 152814#11 -152996#5 153298#2 -152648#6 -152868 -152658#1 -152775#2 153418 -152988 152464 152874#0 152872 152388#0 153413#15 -152792#1 153143#0 153083 152706#3 153640 -152298 -153649#1 153551 -152667#3 152652#0 -152608 153653 -152270 153308#2 153157 -153559#1 153398#1 153586 152711#0 152606#2 152297#0 153160 152899#0 152677#1 -152894#1 -152716 152349 152898#2 152857 152677#3 152670#4 153084 -152453 152947 152987#1 -152648#5 152767#1 153152#2 152353#2 -152882 152773 153116 153400 152402#2 152667#8 152138 -153396#0 -153559#0 -152667#10 152973 153413#6 152491#5 153413#12 153437 152812#5 -152949 -153444#2 -153337 -152778 152939#5 152170#0 152810#1 -152534#2 -152664#4 152649#5 152969#2 -153549#0 -153558 152206 153638 152137#3 153161#0 152900#0 -152464 152684 152490 153126#0 -152783#0 152606#1 153117 152895#2 152683 153274#2 152875#2 -152997 152982#0 -152873#3 153291#0 -152682#2 -152938#1 152982#3 152677#2 152582#4 152396#2 152974 -152699 153287#0 153380#1 -152677#4 153518 152792#0 152701#4 152832#4 152873#1 153153#0 -152388#1 -152668#1 -152657#2 -152384 152808 153270#0 -152649#3 152887#2 -152832#0 153080 152988 152667#11 152514 153405#1 152290 -152996#3 -152960#8 152794 -152831#2 152685#3 -152664#1 152462 153639 153252#1 152137#4 153645 152319 152380 152535#6 152832#2 152935 152159#0 -152885 -153639 -152938#0 152812#1 152160#2 153105 153589 153616#0 152824#0 153617 152775#0 -152398#2 152711#2 153098#0 153549#2 -152836#3 153414#2 153126#1 -152397#2 -152898#1 -152814#7 -153439#0 -152347#0 -152810#1 -152396#1 152664#1 -152940 -152388#0 153521 153554#1 -152900#0 152825#0 -152814#8 -152876 153616#1 153227#0 152775#3 -152451 152509#1 153254#3 -152817#0 152814#3 152676#1 152312#0 -152606#0 -152706#0 153548#1 -152667#4 -152590#0 153139 153654 -152996#6 153225#3 152831#2 -152714 153254#2 152702#1 153119 -152688#0 153585 152158#0 152943#1 152398#3 152783#0 -152140 -152830#2 152810#0 -153559#2 153279#1 153443 -152939#1 -153396#3 152667#10 -152821#2 152174#0 -152664#6 152863 152677#0 153217#1 -152711#1 -152789#2 152710 -152816#3 -152934 152498 -152945#0 152812#3 -152810#2 -152825#1 152782 152888 -152163#1 -152812#5 152144 152989 152534#2 -152676#4 153170 152403 -152290 152459#0 -152386#1 153556 153229 153517#4 152982#1 152781 -152783#1 152818#3 -152883#0 152672#1 153413#1 -152681 152137#5 -152947 -152960#6 152661 153158#2 152701#2 153205 -152787#0 -152775#0 153444#3 152982#4 153085 -152386#2 -152960#0 153291#1 -152887#0 153298#1 153650 152761 153152#0 -153405#0 152664#5 152419#0 -152788 -153413#4 152420 -152830#1 -152895#1 152959#5 152889 153149 -153398#2 -152898#2 153227#1 152883#2 -152802 152230 152818#2 152774 -152895#0 -152163#0 153154#1 153413#7 152793 152677#4 -153374#12 153249#1 153413#10 152139 152654#4 152291 152422#0 152682#2 -152534#7 -152605#1 152892#1 152363#2 152452 152677#5 152785#0 153613 -152613 -152684 152287 152816#0 -152937#0 -152960#2 152812#2 152899#1 152816#4 153198 -152832#6 -153006#0 152934 -152229 153230#2 152363#1 -152398#0 153415#3 152814#5 152706#0 -152880#2 152772 -153398#0 152402#0 152669#1 -152491#1 -152666 -152830#0 -152939#0 152668#0 152832#6 152459#1 153008#6 152604 153101 153081 152796#0 152944#0 -152605#0 -152941#3 -152685#0 -152793 153131 153439#0 153175 152538#1 -152775#5 153008#7 152311 153162 -153374#11 -152605#2 -153335#3 152167 -152939#4 -153413#6 152894#1 152697 -152418 152709#1 153552#1 153406#2 153204 153076 153286 -152606#1 153220#0 153138 -152606#7 -152491#0 -152649#2 152497 152807 153106 152829 -152814#9 153292#1 -153415#3 -153556 152883#0 153004 153649#1 152671 153587 152457#0 152451 152295 -152422#0 -152650#2 -152758 -152400 -152206 152614 153133 -153273#0 152163#0 153111 153281#0 -152308 152667#9 -153379 152353#1 152667#1 152667#2 -152806 -152796#1 152937#4 -152941#1 -152937#2 152224 152576 152890 153513#0 152664#2 -152230 153218 152155#1 -152878 152780 153203 153559#4 -153551 153554#0 152389 152535#0 -153329#3 -152615#0 152831#1 152162 -153548#2 152712 153293 153335#3 -152647#2 153287#2 153374#11 152395 -152657#0 152534#7 -152814#0 152664#6 152670#2 153172 152391 152770 -152810#0 152193 -153413#10 -153640 152706#1 153288#1 152585#1 -152715 153414#1 153171#1 -152902#0 -152798 152960#4 152707#1 152458#2 -152800 152874#2 153399#1 152811 152589 -152812#2 -152969#1 152662 152610 -152892#0 153220#1 -152462 152296 153288#2 -153549#1 -152859 153591 152398#0 152823#0 152606#4 -152831#0 -152677#1 152696 152491#1 152354#1 -152648#3 152667#6 -152827#1 153329#3 -152873#0 152396#1 152397#0 153297#2 152943#0 -152422#1 153107#0 -152132 152605#1 152886#0 -153406#0 -152383#1 -152883#1 152975#2 -152831#1 153607 152901#1 -152767#1 152688#2 -152784#1 -152595#1 -152825#0 152605#2 153115 -152535#0 -152452 -152896 152791 152312#3 152652#1 -152650#0 -153413#1 153305 -152670#3 -152679 152318#4 152969#1 152975#1 152784#1 -152836#5 152454#2 152786 -152958 153197 -152816#1 -152610 -152805#1 -153406#1 -152654#2 -152706#2 152860 -152775#3 152832#5 152603 152944#1 -152646 152160#3 -152821#0 152333 -152697 -152790 -152987#0 152583#0 152708#1 153513#2 152354#0 -153273#1 -152814#3 -152823#0 152538#0 -152582#2 152796#1 152160#0 152670#3 153595 -152472#0 152159#4 153404#1 153335#2 -153405#1 152937#0 152667#7 152827#0 152154#0 152583#1 152996#2 153297#0 -152710 -152969#3 153285 152606#8 -152677#5 -152960#5 152862 152534#0 152135#0 152615#2 -152667#5 152960#6 -153396#1 153011#1 -152823#2 -153415#0 153329#1 -152685#3 153480#7 152648#3 -152857 153646 152960#5 152859 152607 152456#0 -153441#2 152676#0 152678 -152889 -153480#7 153217#0 153195#1 152937#2 153302#0 152298 153214 152174#1 152289 152347#1 153228#0 -152583#0 153141#1 -152615#2 -152385 152470 -152786 152664#4 -152797#0 -153554#2 152156#0 -153413#5 -152593 152676#2 152320 152534#5 153155 153444#4 -152945#2 153126#2 153158#0 152513#1 152704 -152653 -152873#1 -153398#1 152385 153224#1 152778 153519#1 152679 153512 153413#3 153253#1 153006#0 -153549#2 152454#3 152587#1 153438 153554#2 152270 -152937#1 152398#2 153230#3 152458#3 152836#0 -152491#5 152702#0 152398#4 152398#1 152363#0 -152603 153128#1 -152989 152615#0 153075 -152880#0 -152670#4 152873#0 152363#3 153398#0 152881 -152823#3 152899#2 -152821#1 -152861 -152654#3 -153414#1 -152702#1 -153405#2 153248#0 152693#0 -152535#1 153112 152965#0 -152817#3 152766#0 153152#1 -152694#1 152767#3 152709#2 152703 -152662 -152768 152875#1 153228#2 152402#3 153143#2 152836#3 -152386#3 -152703 152665 152960#3 153114#1 152966#1 152767#2 153249#0 152282 -152767#0 152948#0 -153374#10 152938#2 -153491#0 -152870#3 153517#0 -152386#0 -152651 153413#16 -152707#0 153272 -152784#0 -153011#1 152706#2 152137#2 152701#1 152878 153415#2 -152676#1 -152938#2 152705#0 153295#0 153331#0 -152135#1 -153444#4 152347#0 -152983 152460 152154#1 -152459#1 -152677#0 -152898#0 152659 152160#4 152789#3 -152663 153301#1 152163#1 -152649#0 152486 152455 152579#0 -152987#1 152688#0 -152611#0 152584 -152650#1 -152870#2 152169 152219 -152534#0 152606#9 152364 -152606#6 153223 -152664#2 -152165#1 -152945#1 153077 153320#1 153225#5 152705#1 -152582#1 -152284 -153399#0 -152660#1 152170#1 -152421 152900#1 152657#1 153552#2 152762 -152779 153129 152969#3 152693#2 -152877 -152361 152898#1 153651 152817#3 153122#0 -153331#1 152165#1 152884#1 152466#1 153166 -152996#7 152685#2 -153415#1 -152609 -152811 153614 152466#0 -152824#1 -152169 -152937#3 152590#1 153296#1 152587#2 152996#5 -152505 -152300 152983 152422#1 152823#2 153195#0 152651 153444#5 152648#0 152673 -153413#8 152156#2 -152789#3 -152960#4 -152381 -152669#1 152648#5 -153550 152810#2 153559#1 153249#2 -152812#0 152649#3 -152457#2 -153404#0 152676#3 152882 153414#0 -152818#1 152509#0 -152652#0 -152698 -152667#7 152546 -152292 152318#3 153375 -152899#0 153413#0 152617 153596#0 152779 152667#5 153251#0 -153398#3 -152796#0 152457#1 -152799 -152614 152587#3 152866 152297#1 152814#0 153247 -152782 152660#1 -152804 152582#2 152996#7 -153548#1 152789#1 -152582#3 152987#0 153380#4 152714 152805#0 152229 152946 153244 -153405#3 -153648 -152396#2 153553 -152960#7 152681 152668#2 -152606#3 -152886#1 152647#2 152154#2 152654#1 152821#0 -152364 153289 152820 -152772 153415#1 153143#1 152821#2 -152460 -152871 -152875#1 152155#2 -153335#1 -152667#2 -152711#3 153655 152384 152941#3 152884#0 152960#10 -152769 153202#1 153221#0 153161#1 153615 -152706#1 -152661 152593 -152702#0 152513#0 -152468 152582#0 152775#2 153159 152655 153299#1 -152814#11 -152812#1 152698 153156 -152832#4 -152865 -153554#3 152817#2 152814#8 153274#1 152686 -152808 153299#0 -152709#1 -152770 -152824#0 153134 153271 153151 152308 152397#1 -152612 -152819 152153#1 152763 -152812#3 -152538#0 -152967 -152223 152937#3 152949 -152774 152284 152382 -152470 -152709#0 153306 153225#2 152876 -152688#2 152812#4 152939#1 -152167 152836#1 152157 152418 -152780 -153559#4 -153437 153491#0 -152584 -152701#4 152999 -152686 152664#3 -152659 -152664#3 -152763 152649#1 152805#1 152667#4 152836#6 153398#3 152472#1 153165 -152816#4 153552#0 -152491#3 152987#2 -152293 -152397#0 -152705#0 -152134 152134 153511#2 152608 -152226 -152649#1 153224#0 -152706#3 -152766#0 152948#1 152594 152137#7 -152463#0 152832#0 -153414#2 -152814#6 -152135#0 152996#6 152798 -152587#0 -153380#4 152814#9 152982#2 -152665 152783#1 -153329#2 152873#3 -152965#1 153248#2 153299#3 153287#1 152647#0 -152678 -152513#1 152896 152650#1 153179#0 -152836#2 152766#1 152940 153146 153118#0 152463#0 -152398#1 -153548#0 152648#1 -153008#6 152799 153517#3 -152289 -152900#1 152880#2 153232 152941#0 -152969#2 152158#1 -152987#2 -152886#0 153626 -152534#4 -152966#1 152155#0 153127 153224#2 152869 152711#3 -153406#2 153493 152870#2 -153413#12 -152864 -152836#0 152792#1 -153650 152864 -152791 153099#0 153398#2 153141#0 -152805#0 -152912#8 152828 152870#3 -153413#0 152649#2 153103#0 -153335#2 152293 -152616 -152670#2 153294 152960#2 152975#4 -152649#5 152821#1 153225#4 152234 -152668#2 152309 -153380#1 -152711#2 152159#2 152768 -152836#6 152760 -152480 153230#0 -152347#1 153304 -152767#3 152945#2 153609#0 152266 -152818#3 -152606#2 153415#0 152867 153511#1 -152606#9 -152589 152831#0 152939#4 -152606#5 -152472#1 153606 -152604 152650#0 -152380 153230#1 152458#1 152998 152153#4 153153#1 153179#2 -152693#1 -152693#2 152510 153220#4 -152884#0 152699 152865 153273#2 -152587#2 153513#1 152582#3 153150#0 153405#0 -152860 153297#1 -152971#4 -152654#0 153167 152832#1 153331#1 153545#0 -152713 -152676#3 152895#0 152767#0 -153396#2 152137#1 153284 -153413#13"/>
    <!-- id="14" name="Roquebrune-Cap-Martin" -->
    <taz id="14" edges="153555 -153014 -153323#1 -153013 -153326#1 153239 -153355#2 -153326#3 -153365#4 -153492 152558#6 153019 -153580 -153491#0 152972#1 -153363#2 152259 -153378#1 -153480#4 -153324 -153366#0 152283 152994#0 -152339 153352 -153019 152562#1 153381#5 153347#2 152993#1 -153368#0 152993#0 153347#1 152221 152172 -153323#3 -153354#0 152338 153349#3 152527 153372#2 -153367#1 152566#1 153237 153365#0 152465#1 153374#0 -152221 -153060 -153369#0 153238#1 152306#1 153350 153364#1 -152441#1 153094#1 153578#2 152526 -153349#0 -152972#0 -153363#3 153018#2 152579#0 153348#1 153372#3 -153323#2 -153480#0 -153578#1 152584 153086#1 -153381#3 152214 152553 153656 153358#1 153364#0 -152340 153480#1 153236#0 -153343#1 152219 152552 -153343#2 152243 -153578#0 -153348#1 152994#2 152306#0 152548 -152563#0 -153325#0 153016 153480#3 152346#1 -153018#2 152581#5 -153480#1 -152565 -152577#0 -153366#1 -152244 -153368#1 -152284 152512#4 -152577#1 153326#4 153015 153325#2 152345#1 -152558#1 -152165#0 153381#2 153360#0 -152345#0 -153568 152575 -152587#3 -152337 -153343#0 153235 -153374#0 -153362#1 153359#1 -153383#5 -153578#2 153368#1 -153576 153219 -152566#1 153359#0 -152465#0 -153363#1 -153349#4 152345#0 -152341 -153485#3 -153012#0 153381#3 153480#5 153090#0 -153078 -153361#0 152556 152577#1 153086#0 153628#0 152587#2 153365#1 152581#2 153097 152577#0 -153372#0 -153348#0 153533#0 -153325#2 -152145 152245 -153018#0 -153367#0 152276 153492 153017 153095#0 -153351 -152492 -152577#4 153604 -152548 153372#4 -153355#0 -153349#2 -153359#0 153087 -152579#1 -153491#3 152512#1 152972#0 152549 152576 153576 -153555 152516#1 153325#1 152520 -153359#1 153627 153355#2 153371#1 -152544 153093 -152582#0 153375 153568 153381#0 152239 152441#1 -152247 153365#4 153580 153200 -153326#4 -153346 -152473 152216 153323#2 153361#0 -152172 -152216 -152213 -153358#1 152215 152521 153363#3 153378#2 152587#3 -152440#0 -152220 -152557#1 -152993#0 152274 152193 -153485#0 152561 -153356 152994#1 152440#1 -152566#0 -153372#4 -152558#2 152544 153547 152585#1 153060 -153347#2 -153018#1 153371#3 -152560 -152283 -152559 -153485#4 -152558#6 -153381#1 153345 -153371#3 152589 152550 -152581#3 153354#0 -153546 153362#1 152512#3 153354#2 -153381#2 153349#0 152519 153323#3 153485#0 -152551 -152994#1 153373 -153371#0 -152562#0 -153347#0 153056 -152568 153355#3 -153364#1 -153017 152554 -152564 -152558#5 152543 -153343#3 -152579#0 -152441#3 -152972#1 153505#0 153367#0 -153357#1 153485#4 -153022 152248 152220 152350 -153547 153346 153372#1 -153365#3 152582#0 -153372#2 -153349#1 -153372#1 152337 152557#1 -153378#0 -153021 153480#2 152568 153546 -152547 -152994#0 153368#0 -152173 -152488 -152248 152558#5 152246 -153056 -152243 153371#2 153592 153343#1 152340 152581#0 -153376 152569 153349#4 153594 -152552 -153363#0 152558#1 153363#1 153381#1 152518 153349#1 153323#1 -152441#2 153351 -153370#0 -152581#0 152618#1 -153354#2 152336 152558#3 152440#0 -153345 -152335 -152583#1 152563#0 152284 -153365#1 153505#1 -152550 -152543 152488 153347#0 -153369#1 153371#0 152439 -153355#4 153343#0 -152545 152348 152247 -153323#4 153578#0 153628#1 152516#0 153533#2 -152245 152583#0 -153485#1 153018#1 -153323#0 -153361#2 -153357#2 -153372#3 153369#1 153491#0 -152584 -153355#3 152272 -153365#0 -152241 -152970#1 -152995 153618#0 153357#2 153355#0 -153381#4 153357#0 153355#1 153092 -153353 -152242 153323#0 -152439 153238#2 153367#1 152559 -153480#5 -153480#6 153096 -153015 153354#1 153095#1 -153371#2 152334 153236#1 -152581#2 -153358#0 153508 153480#6 153014 153089 -153364#0 152465#0 152583#1 152258 152577#4 153361#2 153022 153091#1 152441#3 -152465#1 -152527 -153350 153577 152473 152581#3 -153326#0 153480#4 152565 153533#3 153485#3 153357#1 153371#4 -152990 152173 152972#2 153348#0 -153381#5 -153357#0 152441#2 153360#1 153480#7 152577#2 -152555 153326#3 -152336 153088 -153381#0 -153348#2 153507 -152957 -153349#3 153378#0 153618#1 152492 153020 152560 -152581#4 153324 -152239 153533#1 152566#0 -153480#7 153021 -152345#1 153326#2 152585#2 153353 153323#4 -152992 152995 -152561 -152307 -153480#3 153091#0 -153371#4 153485#1 153355#4 153358#0 153363#0 -152575 152581#1 152558#2 -153325#1 153094#0 153578#1 -153378#2 152512#2 -152583#0 153326#1 -153480#2 152441#0 152970#1 152563#1 153361#1 153541 153366#1 153348#2 152307 -152578#1 153366#0 -152526 153349#2 152547 -152441#0 -153020 153343#2 -152338 -152219 -153326#2 153362#0 -152618#1 -153371#1 -152577#3 -152218 -152972#2 -153360#0 153199 152517 153196 -152970#0 152218 153365#3 153370#1 153491#3 -152553 152277 -153352 152341 -152557#0 -152440#1 -152581#5 152273 -153577 153378#1 152562#0 -153370#1 152581#4 -153362#0 153370#0 153480#0 153506 -152581#1 153376 -152562#1 152579#1 152242 -153361#1 153381#4 -152215 152577#3 -152558#3 -152589 152241 153485#2 152209 -152348 153012#1 153090#1 -152558#0 153018#0 -153373 152970#0 152208 153343#3 153363#2 -152569 152545 -152587#2 -152563#1 153078 152564 -152577#2 -153347#1 152145 -152993#1 152275 153369#0 -153016 -152191 -153354#1 152578#1 -153355#1 -152246 152990 152339 -153485#2 -152556 152551"/>
    <!-- id="13" name="Beausoleil" -->