
<tazs> 
    <!-- id="33" name="gw33" -->
    <taz id="33" edges="152292 152293"/>
    <!-- id="45" name="gw45" -->
    <taz id="45" edges="153679 152575"/>
    <!-- id="34" name="gw34" -->
    <taz id="34" edges="152568 153369 -153368 -152568 152213 -153369 152564 -152211 -152564 153368"/>
    <!-- id="44" name="gw44" -->
    <taz id="44" edges="-152595#1 152595#1"/>
    <!-- id="43" name="gw43" -->
    <taz id="43" edges="-153459 153459"/>
    <!-- id="32" name="gw32" -->
    <taz id="32" edges="152546#0 152343#1"/>
    <!-- id="42" name="gw42" -->
    <taz id="42" edges="-153475#0 153475#0"/>
    <!-- id="41" name="gw41" -->
    <taz id="41" edges="153483 -153483"/>
    <!-- id="31" name="gw31" -->
    <taz id="31" edges="-152211 152213 153501 -153501"/>
    <!-- id="1" name="Monaco" -->
    <taz id="1" edges="-152916#1 152610 -153427#1 -153572#2 -153673 -152407 152813#0 153467#3 153324#1 152839#0 -153462#2 -153296#0 153010#2 152923#0 -152632#0 152921#0 152176#1 153329 152844#1 152406#3 152512#3 152530#0 152179#3 153397#10 152920#0 153307 153324#0 153419#4 152675#0 153202#2 153267 -152611#2 -153467#4 152422#1 153019#5 -152709#0 -152491 -152636#0 153358#4 -152852#0 152794 -152190#0 -153671 153304#0 153429#2 152688#1 153514#0 -152487#1 153181#0 152733 152174#0 -152891#1 -153358#4 153577#2 -152840 152402 152835#11 -152685#0 -152669#3 -152851#1 152966#0 153173#1 152722#1 -152685#5 153325#1 -152625 152422#3 152852#2 -152804#0 153333 152559#1 153543 152831#2 152961#1 -152838#2 152406#1 152705 -152992#3 152236 -152788#0 152668#2 152833#4 -152879 152416#2 153302#0 153100 -152671#1 -152478#1 153436#13 -152842#0 -152827 153583 -152385 153186 -152853#6 152920#1 -153031#7 152964#3 -152722#2 -152971#1 152699 153540#0 153436#9 152606#1 -152835#8 152982#4 -152501 -152989#1 152835#5 153613 152239 152635 -152916#0 153315#1 153438#0 152680 -152892 153297#3 -152603#1 152309 153311#1 152964#0 -153421#3 -152417#0 153243#0 152788#2 152176#2 152839#2 152332#2 -152638 -152921#1 152329 153467#4 152905#1 153027 153247#1 -152627#5 152671#2 152685#0 -152857#3 -152152 153325#0 152317#1 152800 -152810#4 153535 -152804#1 152180#3 -152688#3 -152406#1 -153437#1 -153436#4 153466 152798 -152311 -153403#1 152841 152962#2 153274#1 152669#5 152704 152992#2 153403#4 -152404 153145#0 153166#0 152992#3 -152842#2 -152835#0 152892 -152685#1 152604#0 -153581 152982#5 -153429#1 -152714#0 -152959#3 153540#3 -152480#0 -152734 153098 153358#2 152988#1 -152675#4 -153397#10 153227 153436#14 -153503#7 152187 -153438#0 152896#0 153161 152418#4 -152893 -152730#0 152695#0 152849 152983#7 -152611#1 153254#2 -152374#0 -152627#9 153582#1 -152604#1 -153428#3 -152685#6 -152313 152475#2 153614 153224 152403#0 153315#0 153317 152695#1 -152246 -152835#6 153298 153243#2 153544 -152983#4 153249 152909 152501 152563 153321#0 -152411 152406#2 -152688#7 -152962#0 152611#2 152731 152339 -152905#1 -152417#1 153149#0 152732#3 153243#3 -152725 152313 -152994#4 153140 152910 152555#3 152959#2 -152732#3 152332#3 -152818#1 -152689#1 -152563 -152981 -153429#2 153247#2 153632#0 152840 152627#9 152806#2 152555#6 152306 153272#1 152691#3 152678#0 152726#0 153144 -152669#1 152806#0 153250#1 -152828 -152837#4 152732#2 -152556#1 153421#0 152998#4 152603#3 152180#2 -152839#1 -153576 -153436#16 152737 -152319 152337 153006 152611#1 153292 -152153#0 -153499#0 -152896#0 153126#1 -152837#1 152894#1 152845#0 153318#1 -152683 152911 153327 152318 -153436#1 153108 -152730#2 -153019#8 152833#5 153133 153358#1 152603#4 152685#1 153201 153672#1 153182 -152604#0 -153027 152173#4 152903 152669#3 -152485 152804#0 152556#6 152837#0 153226 -152627#1 153310#1 152958 -152729#1 -153582#2 152880 153010#1 152556#2 153132 -152705 153582#4 -152811 152675#3 -153661 -152367#1 -152820 152997 -152915#0 152881 -152493#1 -152894#2 153323 -152627#6 152669#0 -152608#0 153397#11 -152691#2 152616#1 -152634 -152637 153272#2 152884 152174#1 152338#2 153421#1 -152700 153137#0 -152959#1 152965 153005#3 -152190#1 -152187 153253#0 153422#1 -152844#1 153171 153296#1 -152250 152890 153536#1 -152691#1 152170 -152732#1 152900#0 -152796#0 152319 -152913#0 -152418#2 153034#0 -152555#7 152673#1 152478#0 -153010#1 152688#11 -152406#2 -152688#5 -152507 152608#0 152723#1 152636#1 153275#2 153156 153403#3 152480#0 -152674 152853#3 -152722#3 152688#3 153331#2 -152483 152835#3 153419#0 152735 152899 152301 153253#1 152374#1 152535 152727#0 152485 -153577#2 152157#1 153428#1 152670#2 153438#1 -153438#3 153308 -152669#2 -152889 152386 152709#1 -152689#2 -152182 -152956 152307 153574 153573 153314#1 153318#0 153011 152842#0 152904#2 -152567 153542#1 152835#6 -152670#0 -152241 152837#5 -153571#1 -152960#0 -152439 -152885 152970 153427#1 -152968#0 -152685#2 -152367#0 -152416#0 152673#0 -152832 -152835#10 153166#2 152812 153630 152891#5 152786#1 -152857#2 -152675#3 152489 152670#5 152688#10 152838#2 -153019#6 153636 152919#2 152959#0 152688#4 -152905#0 -152830 152887 -152556#4 -152963 -152616#1 153149#1 153297#2 152920#2 -152833#1 153321#2 -152891#0 -152962#4 152440#0 152857#3 153277#2 152190#1 -152679#1 -152403#1 -152697#4 -152992#0 -152853#3 152312 152717 152675#2 152729#1 152895#0 -152727#2 152805#0 152475#1 153428#2 -152697#3 152964#2 -153436#3 152638 -152669#6 -152678#0 -152845#1 152722#0 152808#2 152857#2 153240#1 -152691#4 -152798 -152853#5 -153010#2 -152408#0 152835#7 152801 -153022 153662 152678#2 -152688#8 152818#0 153536#2 -152472 -152983#6 153571#2 -152633 153019#4 153436#7 153423 152173#3 153243#1 152916#2 152703#1 152626#2 152703#2 153202#3 152983#2 152195 -152417#2 153609 -152706#0 152637 -152901#2 152418#2 -152703#2 152249 -152880 153275#0 152636#0 -152718 152317#0-AddedOffRampEdge 153145#1 -152442 153238 -152693#1 -152627#4 153180 152475#3 152416#1 -152692 152983#1 152241 -152808#2 152968#1 152832 -152911 -152788#1 152891#0 152634 -152681#1 -152676 153010#0 153302#1 153225#1 -152908#0 -152888 152724 -152844#3 152331 153674 -152684 -152608#3 153303 -153012 -153582#0 152787#1 152157#4 152829 153575#1 -153436#8 153138 -152922#1 153251#0 152726#1 -152723#1 152837#3 152905#0 -152670#2 -153573 152835#9 -152727#3 153176#1 -152810#0 153179 152901#2 152340 152983#5 152835#1 152697#0 152627#3 -152968#1 -152691#0 -153034#1 152178#0 153467#5 152959#3 -152441 153173#0 152857#4 -152512#5 152827 153306#1 152791 153320#1 152779 -152685#4 153202#1 152353 152796#4 152998#2 153005#1 -152369 -152418#4 -153514#0 -152695#0 152443#1 -152797 153575#0 153436#10 -152512#3 -152682 152983#8 152411 152630 152519 152555#0 -152493#0 -153352#2 -153572#1 -152852#1 152709#0 152808#1 152810#3 152667 -152919#0 152512#0 -152670#1 153619#1 152983#6 153252 -152160 -152628 -152622 152157#0 -152826#0 152688#6 -152833#4 153142 153516 153572#1 152473 -152443#1 -153436#6 152888 -153438#1 152244 153020 152781 -152808#0 -152983#10 152826#1 -153422#1 152732#0 -152534#0 -152795 -152243 153319#0 -152556#3 -152668#1 153277#4 -152626#0 152423 152714#2 152857#1 153268 152175#2 152698#3 152555#4 153297#0 152853#1 153469 -152671#0 153103 152992#0 -152910 152815 -152702 152846#1 153166#1 153141#1 153428#3 152603#1 152844#0 152851#2 152833#1 152627#4 152828 -152608#2 153251#2 152857#6 152690#0 152481 -153663 152904#0 152478#1 152964#1 152789 -152821 -153419#1 152690#1 -152959#2 152679#1 153160 152822 153183 153312 152556#1 152688#2 -152794 -152848#0 -153403#0 -152556#6 -153031#6 152507 152959#4 153248#4 -152697#1 -152688#9 152155#0 152332#0 152175#0 152688#7 -152904#1 153403#5 -152781 -152715#0 152782 152895#2 153202#0 152808#0 -152842#1 153184#1 152669#4 152813#1 -152833#3 152894#0 -152714#2 -152240 -152320 -152844#0 152971#1 -152790 152189 152155#1 153165 -153662 153429#0 -152908#1 -153428#2 -153428#0 -152839#3 152732#1 153461 152632#0 153295 153200 -152194#0 153151#1 -152534#1 -152159 152788#1 152853#0 152989#1 153019#2 152698#1 152669#2 -153020 -153572#0 -152735 -152831#2 -152668#2 152369 153281#0 152254 -152881 152885 152896#1 152895#4 152311 -152720 152685#2 152291 -152968#2 152338#3 152835#4 153139 152213 -152703#1 -152405 -152835#1 152907#1 152786#0 153122#0 153328 152403#1 -152817#1 153436#15 153320#2 153256 -152835#5 153436#4 152174#2 -152983#7 -153421#1 153540#2 152685#5 -152727#1 152627#6 152983#4 152728#0 152384 -152846#1 -152715#1 153253#2 153277#3 152956 153568#0 152285 152600#0 152971#0 153174 -152627#0 153130#0 153029#0 152627#1 152183#1 -152478#0 152417#0 152715#1 153677 152853#2 -152688#1 153619#0 -153397#11 -152959#0 -152817#0 153314#0 152474 153218#1 -152480#1 152788#3 153536#0 152784 -152796#2 152693#1 -153019#2 152157#5 152668#0 153192 153239#1 152670#3 -152813#0 152526 -152556#2 152982#2 153572#0 -153436#10 153437#0 -152732#2 -152672 -152814 -152964#0 152681#1 -152555#6 153126#0 152895#1 -152675#2 -152474 -152960#2 -153422#0 -152838#3 152531 -153436#9 -152834 153129 152622 -152884 153305 -152815 -152851#0 -152555#3 -152325 -152796#3 152316 152913#1 152962#4 153290 153568#1 153649 -152857#0 152631 -152837#0 -153588#0 -152909 152623 152728#1 152415 152627#8 152810#0 -152476 152817#0 -152727#0 153099 -152838#0 152959#1 152835#2 152844#2 152833#3 152848#1 -152667 153438#3 153436#0 -152670#3 -153571#0 152797 -153672#1 152736 -153352#0 153436#11 152720 153134 -153574 152440#1 -152636#1 152679#0 152799 152672 153195 -152239 153320#0 -152898 152838#3 -152559#0 -153010#0 152250 153253#3 -152894#0 -153423 152534#0 152900#1 -152189 -152194#1 -152254 152688#8 153437#1 152989#0 -153436#7 152615 152902 152968#2 -153419#2 -152555#4 153296#2 152852#0 -153436#11 152795 153422#0 152183#0 -152603#4 -152897 -152697#0 153022 153164#0 -153403#2 152383#2 153124 152194#0 153031#6 152796#0 153240#0 -152851#2 -153579 -152970 152820 -152801 -152848#1 -153571#2 153577#1 -152983#8 153632#1 152493#0 152493#1 153639#0 -152627#2 153675 152310 152669#1 -152318 -152823 152512#2 -152512#2 152479#2 152315 152190#0 152714#0 152891#2 -152555#2 152796#5 152796#2 153579 152821 153141#0 153164#1 153150 152919#1 152895#5 -153577#3 152962#1 152608#2 152706#2 152883 153319#2 152487#1 -152481 153130#2 152719 153618 -153421#2 152626#1 152722#5 152439 152178#1 152373#1 -152919#1 -152837#3 -152890 -152679#0 152792 153678 -152962#5 152787#0 153577#0 153104 -152853#1 152422#0 -152964#2 153304#1 -152669#0 -152699 -153421#0 152179#1 153202#4 -152610 -152386 153460 -152972 153629 152835#8 153673 -152673#0 152793 153310#2 -152636#2 152158 -152706#3 153221 153237 152370 152338#1 153176#0 -152825 152603#2 152967#0 -152381 152676 -152183#0 153034#1 153352#0 152990 152692 152839#4 152839#1 -152726#0 153275#1 152479#3 153611 153187 152180#4 153436#8 -153582#3 152838#0 152961#4 153296#0 152689#0 152173#1 152179#0 -152730#1 152848#0 153178 152302 -152489 152967#2 -152891#2 -152729#0 152830 153243#4 -153397#12 152444 -152211 -152919#2 153437#2 152698#0 153248#2 153294 -152904#0 152614 -153437#2 152191 153172 -152901#0 153162 152919#0 -152698#1 -152818#0 152418#3 153121#0 153403#1 -152420 153146 152559#0 -152784 152401 152837#1 152730#1 153639#1 153019#8 152373#4 153436#3 152897 153154 152916#0 -152904#2 -152686 -153403#4 153246 152709#2 152845#1 -152891#3 152671#1 -153019#3 -152403#0 152325 152894#2 153159 152624 -152913#1 152960#1 152152 153291 152385 -153436#5 152691#1 153277#0 153175#0 -153019#4 153169 -152669#4 152814 -152994#0 152805#1 -152226 -152816#1 -152887 -152853#2 153157 153149#2 -152857#6 153403#2 153343#0 -152669#5 153181#1 -152244 -153467#2 152921#1 153244#1 -152675#1 152555#7 -152959#4 152675#4 153137#1 153255 152847 153005#2 -152418#3 -152839#2 152512#5 -153460 -152290 152727#1 152367#1 152685#3 152807 -152555#5 153403#0 152826#2 152833#2 -152805#0 153313 -152857#4 152154 -152694 152998#3 153276#1 153277#1 153534#0 152286 153270 -153577#1 153441 -152484#1 153021 -152962#1 152373#3 152383#0 152290 -153582#4 153610 -153436#0 152482 -152960#1 152556#3 -152824 -152962#2 152846#0 152381 152706#3 -153583 -152933#8 152824 152961#0 152406#0 -152921#0 152606#2 153019#6 152837#4 153031#7 152671#0 -152857#1 153123 -152409 -152733 153239#0 -152706#2 -152917 -152726#1 -152971#0 152689#1 152988#0 152518 152688#9 -152627#8 153354#0 -152839#4 -153436#13 152157#2 152831#0 152972 -152526 152851#1 152173#2 152796#3 152702 -152787#1 152374#0 152810#2 -152907#1 -153419#3 152669#6 153669 -152833#0 -152678#2 -152831#0 153273 -152418#1 152417#1 -152835#11 153582#3 153271#0 -152605 152687 -152329 -152559#1 -152719 152967#1 -152829 152420 152605 152476 152963 -152688#2 -152685#3 -152788#2 152831#1 153181#2 152691#2 -152671#2 152383#3 153575#2 153241 -152614 152837#2 153322#2 152915#1 -152698#0 -152906 -152899 -152964#3 152961#2 152604#1 -152826#2 153163 -152835#3 153352#2 -152723#0 152922#1 -152990 152996 -152833#5 -153577#0 152780 152788#0 152159 -152722#1 -152183#1 -153428#1 152441 153321#1 -152717 152686 -153436#15 152176#0 -152698#5 152179#4 152555#5 -152907#0 153177#0 153577#3 -152812 -152838#1 -152988#1 -152923#0 152479#1 152817#1 152194#1 -152983#3 152556#4 152818#1 152834 152472 152422#2 152567 152878 153218#0 -152155#1 152806#1 152373#2 -152678#1 -153296#2 152889 -152894#3 -152668#0 -152688#4 -153358#3 -152484#0 152332#1 152823 -152796#5 -152799 -152690#0 -152709#1 153676 152408#0 -152626#1 153671 -152809 153309 -152697#2 153358#3 153429#1 152157#6 152998#1 152405 -152810#3 152304 152416#0 152697#4 -152635 -152983#2 152803 152627#2 153019#7 -153354#1 152698#5 153247#0 -152835#2 -152800 153436#12 -152608#1 -152796#4 -153436#12 153293#1 -153354#0 152625 -152731 153541 152842#2 152886 -152722#0 152608#1 -152611#0 152407 152636#2 152971#2 153638 -153462#0 -152512#1 153122#1 152512#1 -153358#2 -152964#1 153663 153177#1 -153352#1 -152687 -152236 -153436#14 -152309 152179#5 152783 152682 152891#4 152723#0 -152443#0 152969 153436#5 153005#0 -152154 152678#1 152484#0 152964#4 -152736 152675#1 152961#3 153314#2 152367#0 153281#1 -152626#2 152698#2 152484#1 152835#0 -152791 -152724 152835#10 152722#3 152240 152816#1 -152902 -152835#7 152994#5 -152630 152730#2 152908#1 -152406#0 -152989#0 -153419#0 153331#0 153244#0 153534#2 152173#0 152511 -152837#2 152491 -152556#0 -153427#0 152674 153352#1 -152810#1 152685#6 153612 152534#1 -152732#0 -152384 -152891#4 -152779 -152920#0 153297#4 153194#1 152320 -153019#7 -152844#2 153637 153322#3 152857#0 152185#1 153311#2 153248#3 -152249 -152310 -152709#2 -153438#2 152603#0 -152689#0 -152894#1 -152627#3 -152688#6 -152835#4 -152555#0 153248#1 152894#3 153540#4 -152704 152670#4 152915#0 -152416#2 153189 153360 152982#1 -152487#0 152483 -152988#0 152694 152477#1 -152418#0 153519#3 -152195 -152353 153128 152966#1 -152722#5 153421#2 153254#0 152226 -153402 153135 152853#5 -152624 -152185#0 -152623 -152339 152408#1 153012 153250#0 -152600#0 -152808#1 -152707 -152908#2 -152631 152417#2 152802 153397#12 -152994#5 -152155#0 152685#4 152181#1 152684 152853#6 152810#4 153107 -152836 152983#3 153220 153428#0 152895#3 152243 -152803 -152737 152182 153019#3 -152833#2 -152835#9 -153011 153462#2 -152958 153248#6 -152698#3 153310#0 -153360 153436#1 153661 152443#0 153571#1 152734 152992#1 153228 153188 152689#2 -152415 -152714#1 152700 152819 153136 152804#1 152839#3 152714#1 -152857#5 152901#1 152826#0 152627#0 -153441 152697#3 152908#2 -152688#10 -153034#0 152157#7 152409 -152406#3 -152473 152850 152173#5 152853#4 -152789 152179#2 152479#0 -152416#1 152691#4 153185 153572#2 153668 152727#2 -152886 152668#1 -152853#0 -153358#1 153311#0 153436#16 -152810#2 152691#0 -152670#5 -152983#0 153582#2 -152680 -153437#0 -152629 152477#0 -152852#2 153247#3 152725 -153006 -152839#0 153588#0 -153429#0 153419#2 152852#1 153503#7 -153019#5 -152845#0 -152722#4 153274#0 -152603#3 152722#4 152891#1 152698#4 152524 153272#0 153436#6 -152920#1 153352#3 152629 152628 -153467#3 -152819 -152698#4 153322#1 -152691#3 152718 153575#3 -152853#4 152957 152608#3 153175#1 152177 -152882 152475#4 152442 152627#5 152917 153343#1 -152185#1 152904#1 -152831#1 -153672#0 153540#1 -152681#0 153462#0 -153419#4 -152983#5 153194#0 153644 -153424 152328 153316 153608 152891#3 153271#2 152722#2 -152826#1 153130#1 153421#3 152893 152317#0 152898 -152401 -152690#1 -152793 153534#1 -152698#2 -152603#2 152697#2 -152627#7 153248#5 152994#4 -152805#1 153402 153293#0 -152878 -152983#1 152338#4 -152783 -152408#1 -153464#2 152683 152627#7 152670#0 152896#2 153672#0 152707 152383#1 152968#0 152633 -152992#2 -153403#3 153398 -152901#1 -152788#3 -152304 -152603#0 -152896#1 -152478#2 153322#0 -153352#3 -152512#0 -152992#1 -152822 -153582#1 152400 152810#1 152844#3 153199 153419#1 -152328 153354#1 -152903 153576 -152787#0 -152971#2 153424 -152693#2 152907#0 153193 152982#3 152842#1 153571#0 -152695#1 -152915#1 153438#2 -152849 153153 152693#2 153419#3 153152 152556#0 152670#1 152404 -153296#1 -152802 -153029#0 -152400 152180#1 -152670#4 152555#2 152480#1 152681#0 152879 153331#1 153276#0 152960#0 153184#0 -152312 152487#0 152688#5 152157#3 153271#1 152857#5 153319#1 153198 153175#2 152175#1 152597 152960#2 -152846#0 153297#1 152478#2 152697#1 152180#0 153005#4 152983#10 152530#1 152418#1 -152807 -152728#0 153106 152962#5 153640 -152675#0 152727#3 -152782 152906 152838#1 153190 -152813#1 152164 152418#0 152991"/>
    <!-- id="14" name="Roquebrune-Cap-Martin" -->
    <taz id="14" edges="153371#1 152610 153043 -153371#1 -153406#5 -152584#0 -153016#1 153556#0 -152265 -153372#3 -153601#1 -153503#2 153372#2 -153395#3 -153381#1 152955#3 153508#2 153041#1 153514#3 -152590 -152598#2 153388#4 153035#1 -152571 -153373 152268 -153016#0 -153384#1 153394#3 153018 153394#2 153378#2 153394#1 153390#0 153370#0 153389#0 -153514#3 152304 152572 153368 152578#1 152537#1 -152602#2 -152192 -153387#0 -152360 153258 -153508#4 153120 153349#2 153377#2 153394#4 -153386#3 -153368 -153348#1 -153390#1 152513 -152509 153641#1 153114#0 153378#4 153044 -152486#1 152265 153382#1 -153346#3 -152266 -153380#0 153404#0 -153601#2 152600#1 153112 153514#0 153578 153395#4 152590 153371#0 153508#1 -152365#0 152294 152533#3 -153371#2 153399 -153378#2 153117#1 -153386#0 153388#0 -152236 -153404#0 -153372#1 -152587#1 -152239 153679 -152579#6 152583#1 153615 152234 152292 -152639#1 -153388#4 -153603 -153079 -153384#0 152494 -152235 -153569 -153366#1 152236 152365#1 -152572 152327 153378#3 153116 152598#3 153390#1 -153600 -152600#1 -152547 153503#4 -152596 -153389#0 -153503#4 -152261 -152568 153262 153386#2 -153041#0 152241 153404#1 152509 152240 153349#4 153261#1 153508#4 -153349#1 153366#2 152606#1 -152259 -152578#0 152564 152579#5 153013 152639#1 153651#0 153385#1 152295 -153039 -152584#1 -153503#3 153372#3 153039 152598#0 152239 153377#1 -153378#3 -153395#1 -152608#3 153393#1 -153508#0 -153503#0 -152578#1 -152264 -153349#3 153386#1 152326#1 -153503#5 -153386#2 153600 -152494 153393#0 153041#0 153530 -152579#3 -152462#2 -152574 152579#4 152608#2 152568 153260 -152583#0 -153386#1 152293 152537#0 152279 -153404#3 153346#1 152533#4 153383#0 152579#3 -153387#1 152462#1 152603#0 -153508#2 152278 153515 152540 -153372#2 153385#0 -152565 152361 153242 -152579#1 153387#1 152596 153115 -153397#0 152579#2 152461#0 153391#1 -152462#3 153219 -153017#1 -152357 153040 -152610 -153346#4 152569 152583#0 -153346#0 -152598#0 153113#0 153372#4 -153385#1 152955#2 -153393#1 -153514#0 152602#0 153348#2 153508#0 153386#3 153391#0 152356 153529 -152993#0 -153346#2 152366#1 152486#0 153627 153601#0 153503#5 -152579#4 152604#0 -152580 153556#2 -153371#0 152370 -152980 152228 152993#1 -153601#0 -152582 -153399 152574 -153377#0 153079 -152185#0 152547 -152600#0 152995#2 153503#0 152368 -153503#7 -153394#1 -152576 -153393#0 -153508#1 153377#0 -152263 -153383#0 152193 -153591 153528#0 152460 -152462#1 -152579#0 152462#3 153601#1 153366#3 153395#2 -153040 -153388#2 152358 -152604#1 -153388#0 153372#1 -153378#1 -152211 153380#1 -152462#0 -153378#0 153591 153113#1 -153045 152541 -152579#2 152360 -152358 153380#2 -153385#0 153016#0 153404#3 -153374 153083 152462#0 -153370#1 153017#1 152573 -153570 153371#2 -153366#3 152263 153378#1 -153503#1 -152995#0 152599#1 -153401#2 152602#5 153599 153388#1 153392#1 153617 152357 152262 152365#0 153384#1 -153348#2 -153370#0 152586 -153366#0 -153082#1 -153391#1 153376 -153042 153374 153386#0 -153348#0 -153377#1 153396 -152602#0 153395#3 -152262 152266 -153578 152354 152581 152602#4 152542 -153384#2 152261 -152564 -153395#2 152303 153016#1 -152566 153348#1 153349#3 152598#4 153346#0 153508#3 -152608#2 153389#1 153366#1 153641#0 -152573 -152598#4 153503#3 -153349#0 152565 -153083 -153349#2 -152359 -153043 -153366#2 153042 153603 -152368 152587#0 -153379 153401#1 -153041#2 153392#0 -153404#2 -153508#3 -153101 -153370#2 152238 -152604#0 152326#0 152995#0 153404#5 153401#0 153503#7 152580 152589 152579#6 -153376 153388#2 152575 -153372#4 -153377#2 153370#1 152566 153395#1 -152356 152955#1 152587#1 -152602#3 153222 -153394#4 -152460 153556#3 152267 -153015 153394#0 -153037 153651#1 -153035#0 153259#0 -152579#5 -152240 152462#2 152608#3 153381#1 153388#3 153650 -153346#1 -153378#4 -152598#3 153564 -153013 -152589 -153401#1 -152486#0 153109#1 153601#2 152606#2 153404#2 152955#0 153556#1 152577 -153599 153401#2 153110 152602#2 153346#4 153373 153114#1 153223 -152599#1 -152585 153404#4 153346#3 -152583#1 152259 -153038 -152327 152192 152461#1 153045 -153017#0 153380#0 -152581 -153391#0 152533#1 -153372#0 -153375 152602#1 152486#1 153503#2 152213 153119 153349#1 -153395#0 153387#0 -152586 -153388#1 -152361 -152569 -153392#1 153569 152584#1 -153349#4 153398 -152587#0 -153036 -152304 -153390#0 -152605 -152603#0 -153044 152995#1 152359 -153381#0 153531 153037 -153404#4 -153041#1 153570 152598#1 -152365#1 -152513 153384#0 -152233 -153395#4 153041#2 153528#1 152296 152600#0 152605 -152238 153375 -152267 152598#2 -152193 153017#0 152548 153118#1 153397#0 153109#0 -153401#0 -153388#3 -153392#0 -153369 152229 -152268 -153404#5 153261#2 152579#1 152533#2 153117#0 152571 -152602#1 153038 -152548 -153394#0 152604#1 152538 -153382#0 -152995#2 153366#0 -152995#1 -153380#1 -153394#2 152585 152602#3 153383#1 -153394#3 153017#2 152165 -152165 -152355 -153380#2 -152241 152993#0 153503#1 153503#6 153382#0 152570 -153396 153259#1 -153347 153372#0 153111 -152461#0 153384#2 152597 152539 -153404#1 153118#0 -152602#5 152297 -152577 -152461#1 153347 153378#0 -153389#1 152235 -153382#1 153381#0 153369 153101 -153503#6 -153018 -152303 152584#0 -152993#1 -153515 152582 153346#2 -152598#1 -152602#4 153370#2"/>
    <!-- id="13" name="Beausoleil" -->