
<tazs> 
    <!-- id="33" name="gw33" -->
    <taz id="33" edges="13343 13342"/>
    <!-- id="45" name="gw45" -->
    <taz id="45" edges="14732 13626"/>
    <!-- id="34" name="gw34" -->
    <taz id="34" edges="-14420 14419 14420 13615 -14419 -13615 13619 13242 -13619 13233#1"/>
    <!-- id="44" name="gw44" -->
    <taz id="44" edges="-13646#1 13646#1"/>
    <!-- id="43" name="gw43" -->
    <taz id="43" edges="-14510 14510"/>
    <!-- id="32" name="gw32" -->
    <taz id="32" edges="13394#1 13597#0"/>
    <!-- id="42" name="gw42" -->
    <taz id="42" edges="14526#0 -14526#0"/>
    <!-- id="41" name="gw41" -->
    <taz id="41" edges="14534 -14534"/>
    <!-- id="31" name="gw31" -->
    <taz id="31" edges="13251 14552 13250#1 -14552"/>
    <!-- id="1" name="Monaco" -->
    <taz id="1" edges="-14624#3 14479#3 13212#1 14480#1 -14403#0 13457#2 14080#0 13966#1 13859#1 -14057 14682 -13610#0 -13529#2 14173#0 -13187#1 -13740#1 14013#1 13455 13877#2 -13184 13685 13528#0 -13886#7 13606#7 14473#1 -14454#4 13850 13739#3 13222#0 14367 13434#1 14592#2 14487#3 13839#1 -13944 14692#0 -13651#0 13782 14253#3 13779#1 13783#2 13648 -14623#1 -13467#0 -13375 -13678#1 -13739#6 -13955#2 14306 -13757#3 -13861#0 13657#2 13835 -13744#2 14279 13859#0 -13773#0 13654#1 13687#2 -13749#0 13383#1 -14061#1 13947#0 14322#0 -14034#8 13742#0 -13781#0 -13736#4 13780#1 14033#3 14721 -14403#1 -13884#3 14370#1 -13217#0 13884#1 -13943 14448#10 -13904#0 -13875 -14487#9 13222#1 14449#2 -13769 14394#0 13678#0 -13221 14045#5 14727 13947#2 13949 -13687#0 -13678#9 13538#1 -14472#1 14470#1 -14073 13586 -13771 14070#6 14328#2 13187#0 -13467#1 13530#3 14061#1 13882#0 -13729#0 13736#0 13221 14197 13469#4 14342 13563#2 -13719#0 -14479#0 13434#0 -13745 14474 13900 14012#3 -13494#1 14220 13897#0 13839#0 14361#0 -14015#0 13861#0 13867#1 -13859#2 -13904#2 14072 -13563#0 -14010#2 14299#1 13873 13773#0 13853 14302#0 13778#3 -13895#0 13206#1 13492 -13683#0 14180 14518#4 -13884#5 13722#0 14629#0 -14513#2 13196 -13739#8 13473#3 13678#9 -13787 -14085#0 -13748#2 -13760#2 -13618 13300 13211#3 14472#2 13739#4 -14454#0 -13756 -13655#1 14011#1 14033#1 14232#1 -13897#1 13729#0 13189#7 13719#2 13946#0 -13869#0 14354 14298#2 -14635 13542 13211#0 13606#4 14448#12 -13845 -13607#4 14061#0 13391 14731 13838#0 13473#2 -14565#0 13742#3 13739#5 13902#1 13738 14624#0 14356 -13492 13677#2 13456 -13741#0 -14470#2 13533 14033#4 -14034#5 14015#1 14488#0 13886#0 -13865 -14011#2 13760#0 14318 -13748#0 13884#3 13526#2 14487#11 14181#0 13945#2 14371#2 -13888#1 -13719#1 13189#5 13749#3 13888#0 14011#2 14409#3 -13908#6 14013#5 14235#1 14370#0 -13937 -14489#2 13614 14454#4 14554#7 -13904#4 14373#2 -14347#0 14366#1 13223 -13542 -13749#3 -13661 13840 -13214 -13606#6 -13544#1 13945#1 -13742#2 -13276 14043#0 14323#2 -13778#0 -13457#1 -13730#0 13732#1 -13948 13530#2 14295#0 14587 13205#4 13457#1 -13942#2 13973#1 -13739#7 13890#1 13895#1 14488#1 14634#4 14480#0 -14472#0 14057 13884#2 14375#1 13341 13967#2 13491#0 -13773#3 13421 14472#1 14212 13861#4 13526#4 -13952#2 -14518#4 13749#2 -13902#0 14453 14363 14304#1 -13781#1 -14013#5 13783#0 13864#0 -13904#1 14343 -13724#0 13186 14403#2 13718 13903#0 -13538#1 -13614 -13678#2 -13781#2 -14470#0 13868#0 -13354 -13563#5 13889#1 14078 -14045#4 13904#0 -13606#5 14628 13190 14223 14487#6 -13889#1 -14061#2 -14010#1 13739#2 14041 -13877#0 14403#0 14454#3 13886#6 13739#9 -13778#3 14012#0 14345 14663 14568 -13903#2 -13774#0 14620#1 -13535#0 -13859#1 14271 13389#2 13362 13750 13424#3 -13563#1 -14511 13459#0 13970#2 14185 13356 13930 14470#2 -14043#0 13666 13606#6 13970#0 13469#3 13585#0 13744#1 -13684 14201 -14515#2 14362#0 -13722#1 -14347#1 13276 13754#2 13457#0 13453 13886#8 13908#3 -13531#1 14043#4 13886#7 -13773#1 -13839#0 13956#0 13250#1 13886#2 13834 14725#1 13286 14671 -13469#0 -13739#3 14289 -14403#3 14403#3 -13469#2 14173#1 -14454#2 13214 13846 14154 14241 14253#1 -13455 13552 13908#1 14013#4 -13252 13367#1 13529#2 -14629#3 13760#1 13202 -14634#4 13720#5 13974#0 13741#0 14411 -13665 -13881 -13765#2 13585#1 -13685 14175 13966#0 14328#4 -13680 13656 -13973#1 -13552 14022#0 13942#5 -13558 14627#3 13357 13380 13726#1 -13720#5 13746#1 14246 -14010#3 13736#6 14353#0 -14022#2 -13768 14518#3 13610#1 -13884#4 13367#0-AddedOffRampEdge 13739#1 13424#1 14294#4 -13720#1 13851 -14040#1 14063 -13544#0 13304 14714 13727 14304#2 -13722#2 -14554#7 -13754#2 13383#0 14348#0 -13886#3 -13879 -13659#3 13886#11 14722 -13942#3 14195 -14487#4 -13370 13291 14627#1 13210#0 13955#0 14355#0 -13967#0 -13847#4 -13861#2 13558 13741#1 13948 14690 -13873 13971#1 -13902#1 14294#1 -13459#0 13776 13786#0 -13677#2 13607#6 13904#1 -14641#0 -13904#3 -14070#2 13785 13962 -13941 13896#1 -13720#6 13732#0 -13678#8 13418#0 13654#0 14626 13490 -14513#0 13678#5 -13872 14049#1 -13452 -14453 -14034#10 14155 -13783#0 -14070#7 14214 -13732#0 -13740#0 -13460 -13739#5 -13748#3 -13839#3 -13957 14365#2 -13721#5 -13736#2 14629#1 13607#4 13726#0 -14034#1 -13721#1 -13858 14472#0 -14487#0 13654#4 -13682 14010#3 -13847#3 14237 14369#1 14346 14634#1 14348#3 -13931 14020 13844 -13847#5 -14015#1 -14411 13294 14489#0 13733 14473#0 13739#11 -13742#4 14211 -13766#1 13687#1 14010#1 13787 14672#1 13904#6 13467#0 -13956#0 13680 -14714 14033#5 14203 -14019#1 -13469#4 -13673 -13718 13191 13866 14272 13774#1 13959#2 -13773#2 -13418#1 -13734 14623#1 14629#2 14056#2 14018#2 13682 14034#6 14290#0 -13494#0 -14480#2 -13786#2 -14487#15 14238 13947#1 -14009 -13577 13893#2 -13742#3 14373#0 13535#0 14489#2 13958#1 -14007 14039#1 13898 -13467#2 13748#3 -13962 13189#1 13877#1 14382#0 -13435 14728 14304#3 14015#0 14012#1 13880 -14043#2 14586#0 14627#0 13833 13388 14697 -14479#3 13365#1 -13862 13563#5 -13737 14691 -13187#0 -13527 13667#1 -13749#2 14372#2 13968 14588#2 13869#1 -13774#1 14011#0 13953 13544#0 13351 -13964#1 14592#4 13368 -13974#0 14586#1 14301#1 -13607#6 13205#5 -13959#2 14725#0 14007 13858 -13404 -13732#1 13527 13771 13754#1 13424#2 14487#16 13530#1 -14480#0 14158 13886#5 14470#4 -14022#0 13524 13775 -13950 14034#7 14588#1 13211#5 13457#3 13523 14018#1 -13751 13740#0 -13678#4 13723 14374 -13606#0 -13900 13742#4 -13731 14517 14511 14348#4 14627#2 13848 14228#0 13375 -13970#2 -13538#0 13857#0 -14347#2 14018#0 13861#3 14245#1 -13457#0 13211#4 13773#2 13778#0 -13765#1 -13833 14368 -13286 -13296 14034#1 14159 -14013#0 13577 -13719#2 -14487#5 13832 13904#2 14448#11 13838#1 13434#3 13725 13452 -13760#1 14215#0 -14043#3 -13726#4 13361 -13867#1 -14039#0 14634#3 -14715 13534 -13908#5 13855#1 14070#5 -14478#1 14184 -14488#0 14019#0 -13776 13726#3 14222 -13340 -13454#0 -13766#0 -14629#0 -13908#0 13299 13739#8 -14472#3 13736#5 13908#2 13722#1 13958#0 -13760#0 13607#0 -14070#4 -13721#4 14056#1 13855#0 -13360 14192#0 13888#3 14204 -14014 -14487#3 14349 14360 -13945#1 -13736#5 13205#2 13289 14631 14151 14008 14215#1 14056#3 14015#2 13661 13956#1 14487#10 14382#1 13213#1 -13363 -13773#4 14043#2 13888#2 13970#1 13211#2 -13886#10 -14448#11 13467#1 14304#0 14376#0 13955#1 14305#2 13746#0 13491#1 -13466 -13887 14022#2 13749#4 13881 -13953 13379 14049#2 14298#3 -13955#0 13208#1 -14634#0 -13964#0 14010#0 -13938 -13904#6 13526#1 14181#1 -13736#6 13290 13215#1 14405#0 13902#2 13659#0 14230 13468#0 -13870 -13877#1 -13984#8 13678#8 13755 13581#1 14291#1 14487#1 -13741#1 -13418#0 -13754#1 14322#2 -13655#0 13435 13657#1 13908#0 14226#0 13536 -13535#1 14328#1 13678#6 -13678#6 -14061#0 -14518#2 -13687#2 -13606#2 13788 -13783#2 14227#1 -14487#13 -13935 -13746#1 13451 13495 14726 -14475 13749#5 14454#0 -14021 -13890#3 13779#0 -13294 14085#0 -13954 14014 13904#5 13184 14056#4 13937 -13219 14070#8 -13955#1 14322#1 -13888#3 14454#2 -14070#8 14513#2 14048 -13960 -14023 14624#2 -14487#14 13908#5 -14629#1 -13773#5 -13939 -13420 13899#0 13655#1 14635 -13895#2 14624#3 14479#0 -13782 13852 -14085#1 -13864#1 -13958#1 -14487#6 13252 -14518#3 13208#2 13425#1 13847#0 -13947#1 -13861#4 14299#4 14297 13884#4 13189#6 -13740#2 13722#2 13570 13946#4 -13952#1 -13839#2 -14550#0 -13786#0 14357#1 13847#2 14370#2 13721#5 -13736#3 13686 -13942#4 13569 13731 14662 14594#1 -13886#11 -13903#1 -14474 14235#0 -13868#0 13676 -13529#0 13864#1 -14492 -14623#2 -13749#1 -13720#4 -14405#0 -14045#0 13212#2 14292 -13739#4 14193 14210 13938 -13678#0 -13777#1 14226#2 -14082#6 14341 13941 14565#0 13893#1 -13468#1 13473#0 14240 13971#2 -14022#1 13207#1 14571#3 14225 14353#1 -13458 13367#0 14518#5 -13720#3 14489#1 13678#2 14475 -13886#5 -13861#1 -13908#3 13972#1 14040#0 -14011#0 13882#1 13742#1 14479#2 -13735 -14454#3 -13959#0 13929 13890#3 -14634#3 14231 -13849 -13185#0 -13380 14358 -13885 13739#7 13749#0 -13289 -13958#0 -13654#3 -14010#0 13734 13865 -13908#1 14373#1 14512 -13886#2 -13886#6 13845 -13945#0 14205 -13758 13606#5 -13585#0 -13896#0 13952#1 -13748#4 -13854 13872 13673 13678#4 13662#2 -14487#10 14243 13721#0 14378 14715 14666 13895#0 14181#2 -13749#5 -13868#1 13209 14327#0 13736#3 13189#3 -13970#0 -13656 14693 -13844 14236#0 13459#1 13382 14022#1 13897#1 13942#2 14298#1 -13490 13720#4 13944 14269#0 14513#0 13874 -14478#0 -13908#4 -13777#2 -14403#2 13215#0 14015#3 14207 -14409#4 -13192 -13359 13730#0 -14448#10 -13659#0 -13459#1 -14034#7 13563#0 14082#6 -13785 14196#0 14487#12 -13654#1 13606#0 14641#0 14186 13659#1 -13884#2 13606#2 14188#1 13847#5 14375#0 14702 14520 -13842 13890#4 14294#3 14623#2 13389#4 13760#2 14047 13365#0 -13755 -13222#0 -13778#2 -13863 -13899#1 -13888#2 13242 -14010#4 13688 13538#0 -13788 -13677#0 13839#3 -13523 -13676 -13947#0 13469#1 13206#0 13856#1 -13725 -13832 -14080#0 -13942#0 13370 13748#4 13748#1 -14631 -14405#1 -13743 -14489#1 -13878 13678#1 -13966#0 13659#3 13882#2 14017#0 13751 13784 13736#1 14217#1 14365#1 -14062 14299#6 -13532 14303 14033#2 -13830 14409#1 14372#0 14010#4 13847#3 13736#4 14667 14149 14224#0 13869#0 -13678#3 13786#1 13563#3 -14013#1 -13882#2 -13293 14082#7 14236#1 14233 13607#1 -13945#2 13210#1 14012#2 14487#5 -14082#7 13366 -13936 -14070#6 14085#1 13208#0 -13757#0 -14034#4 13389#3 13773#4 13942#1 14294#0 -13425#0 14290#1 -13961 13469#0 -14071 13735 13352 -13726#2 14692#1 13212#4 14010#2 13684 -13738 14250 -13888#4 -13469#3 -14015#2 14344#0 13454#1 -13456 -13861#3 -13679 14307 13335 -14034#3 13903#2 13899#1 13960 14328#3 -13525 -13689 13390 -14487#16 -14487#7 -13654#0 13904#4 -13856#0 -14487#12 13946#3 14070#2 14373#3 -13968 -13893#1 13363 -13300 13529#0 13890#0 -13929 -13607#1 -13930 13721#3 13468#1 -13457#2 -14013#4 -13883 14234 13830 13943 14073 13740#1 -13838#0 -13884#0 -13904#5 -13749#4 -13739#9 -14015#3 14403#1 13360 -14409#1 13721#2 14487#8 -13726#0 13777#1 -13778#1 14017#1 13679 -13886#9 14355#1 13837#0 13888#4 13748#0 13493 13675 -13739#2 14362#1 -13454#1 14629#3 14319 13736#2 -13730#1 13217#1 -13729#1 -13932 13655#0 -13777#0 -14472#2 13742#2 -13876 14276#1 13743 -13971#0 -13720#0 -13886#1 -14726 13908#4 -14470#4 -13739#10 13883 -13893#2 -13721#2 -13847#2 -13889#0 13678#3 13831 14470#0 14592#1 14200#2 -14487#1 13618 -13364 13766#1 -14629#2 -13191 14480#2 -14724 13251 14232#2 14294#2 -14409#2 -13846 13740#2 13895#3 -13368 -13859#0 13959#1 14190 13939 -13186 -13687#1 13932 -13736#1 -13871 -13902#2 -14473#1 14323#1 13748#2 -14716 -13856#1 13189#0 13719#0 -13895#3 -13908#2 14326#1 14015#4 -13726#3 13529#1 -13729#2 13889#2 -13971#1 -13723 -13432 14042 -13886#8 13206#2 13744#2 -13933 -14019#2 -13866 -13853 13189#4 13854 14301#0 13581#0 13681 -13780#0 14189 13471 13729#2 13946#2 14664 14034#2 -13757#2 -14488#1 -13654#2 14382#2 13458 13494#1 14324 14039#0 -13304 -14725#0 -13536 13720#0 -13940 -13529#1 -13880 -13686 13954 14724 13544#1 14488#2 14665 13721#1 13964#1 13494#0 14183 -14634#2 13205#0 -13899#0 -13775 -13720#2 14277 -13379 -13675 -13742#0 -14070#5 14227#0 13903#1 13207#2 -14626 -13362 13886#9 14332#1 -13839#1 14487#7 -14624#1 -13739#1 -13674 13389#1 13908#6 14487#9 -13966#1 -13654#4 14326#2 13212#0 14379 14478#1 -14034#0 -13750 14061#2 14269#1 13753 -13722#0 13432 13957 -13290 13781#1 13434#2 14040#1 -13886#0 14487#14 13961 14226#1 13719#1 14034#8 13942#0 13474 -13864#0 14492 14470#3 -13970#1 13967#0 14016 14295#1 -13890#1 13726#4 14253#4 -13891 -13746#0 13293 14323#0 14300 13870 14321 -13299 -13662#0 14245#0 14239 13369 14196#1 13859#2 14049#3 14348#1 14394#1 14213 13765#0 14729 -13369 13540 14291#0 14187 13466 -13688 14376#1 14588#0 14409#2 13454#0 13972#0 14070#3 14380 -13606#7 14252 -13889#3 14593 -13852 14405#1 14150 -13726#1 13773#5 13935 13420 -13855#0 13187#1 13729#1 13856#0 14251 13757#2 14595 13354 13893#0 13891 14325#1 14362#2 14288 13940 13777#2 13885 -14634#1 -13585#1 -13895#1 14070#7 14305#0 13946#1 -14488#2 14384 -14078 14365#0 -14480#1 13786#2 14253#2 13359 13877#0 13532 -13662#1 13233#1 -13972#0 -14624#2 13189#2 -13681 13756 14023 14216 13654#3 14244 13896#0 -14479#2 -13959#1 13530#0 -13886#4 -14041 14347#1 14472#3 -13678#5 13525 13955#2 14328#0 -13531#0 14177#1 -13765#0 13724#0 -13361 14683 -13215#0 -13780#1 14179 13857#1 14672#0 13662#1 14056#0 -13783#3 13781#2 14177#0 14191 13878 14217#0 13535#1 -13952#0 14487#4 -13534 13526#3 -14454#1 13884#5 13942#4 -13786#1 14019#1 14228#1 13888#1 -13847#0 -13607#0 13778#1 13678#7 13687#0 14327#1 13726#2 14188#0 14249 14278 13886#1 -13840 13469#2 13890#2 14371#0 13777#0 -14032 13952#2 13424#4 13778#2 14326#0 13942#3 13340 14043#1 -13215#1 14487#15 -13659#2 -13877#2 14208 14045#4 14021 14174 -13956#1 -13678#7 -14487#11 13879 13875 13773#3 -14045#5 14172#0 14359 13531#0 13404 14202#1 -13462 -13721#0 -13217#1 -14409#3 14347#2 14625 13739#6 13749#1 -13736#0 -14011#1 -13888#0 13211#1 13861#2 13460 13737 14372#1 -13493 14487#13 -13834 13843 14253#0 -13222#1 14624#1 13769 13765#2 13945#3 14217#2 14454#5 14009 -13469#1 -13563#2 13205#3 14586#2 -13841 13659#2 -13783#1 13861#1 -14489#3 13888#5 14685#1 -13889#2 -13540 13745 13205#1 13610#0 -14019#0 13783#1 13950 14366#0 14487#0 -14040#0 -13748#1 -13563#3 -14623#0 13739#10 14371#1 13212#3 13683#0 -14473#0 -14489#0 -14470#3 -13848 -14470#1 -14628 -14070#3 14592#0 -13770 -13727 -13744#1 13721#4 13528#1 -13835 -13967#1 13757#3 -13659#1 14299#5 -13860 13473#1 13720#3 13720#6 13783#3 13770 13847#4 14012#4 -14034#2 -13874 14299#2 14689 13531#1 13562 14070#4 13936 -13896#1 -13972#1 14409#4 -13291 -13882#0 -13869#1 14730 14299#3 -13468#0 13971#0 -13606#4 13895#2 14348#2 13758 -14625 14034#10 14034#3 -13607#2 13607#2 -13850 14232#0 14479#1 13871 -13610#1 -13457#3 14043#3 13383#2 -13471 13889#0 14019#2 -13390 13904#3 14347#0 13468#2 14049#4 13563#1 13724#1 13765#1 14062 -14725#1 13842 13946#5 13889#3 -13949 13951#1 -14043#1 13336 13651#0 13773#1 -13945#3 -13721#3 -14487#8 14620#0 -13882#1 13575 -14063 14013#2 -13733 14364 13934 -14039#1 14369#0 14224#1 13674 13730#1 -13890#4 13689 13868#1 14298#0 14623#0 14489#3 14661 13892 13677#1 -13851 -13677#1 14332#0 -13884#1 14275 13467#2 13219 13886#3 -13753 -13855#1 13886#4 13768 14157 14325#0 13665 -14043#4 14454#1 14200#1 -14624#0 14685#0 -14479#1 13207#0 13654#2 -13903#0 14592#3 14071 -13662#2 14344#1 14596 13720#2 -14034#6 14716 13462 13582 13720#1 13418#1 -13667#1 14200#0 -13779#0 13849 13901 -13838#1 -13942#1 13857#2 13945#0 14192#1 13425#0 -13890#0 -14633 13774#0 -14448#12 -13468#2 -13893#0 13886#10 -13742#1 14302#2 14634#2 13931 -13784 13837#1 -13451 -13890#2 -13897#0 13839#2 13863 14229 13951#0 14034#5 13383#3 -14013#2 14034#4"/>
    <!-- id="14" name="Roquebrune-Cap-Martin" -->
    <taz id="14" edges="13291 -14046#0 14312#2 13411 13410 14429#1 14439#2 -13619 13412 -14421#2 -13537#1 13284 14443#0 13649#0 -13629#1 14554#6 -14422#1 14152 13405 -13638#0 -13316 14006#1 -14428#2 14067#1 -14439#4 -14554#1 14442#0 -13629#0 -13630#6 -14455#1 -13653#3 14582 13584#1 -14428#0 14167 13628 -14046#2 13621 14422#0 14455#3 14440#0 -14417#1 13654#0 -13651#0 14694#0 13617 13584#2 -14652 -14422#0 -13630#0 13648 14429#4 -14457#4 14554#1 14559#4 -13635#0 13653#5 13657#2 -13653#2 14064 -13634#1 -14397#1 14435#2 14566 14565#0 -13640 14694#1 13318 14092#1 14439#4 14398 -13625 13537#0 14429#0 14130 -13315 13636 13615 14092#2 13647 -14399#1 13285 14437#1 -14455#5 14452#1 14432#1 -13290 -14397#3 13649#1 13279 14397#3 14424 -13630#3 -14449#1 -14554#3 13653#4 -13317 14608#3 14399#2 -13217#0 13408 14310#1 -14445#1 14432#0 -13564 13630#3 14449#2 14581 14435#0 14089 -14133#1 -14442#1 -14440#0 14653 -14559#2 -13416#1 13620 14169#0 -14439#2 14400#3 13599 -13197 13309 -13511 -14559#4 -13289 -13513#2 14431#2 14559#0 14166 14668 -13632 14434#0 14439#3 13634#1 14654#0 -14420 -13411 -14431#1 -14446#0 13407 14417#0 14400#1 -13615 14434#1 14446#3 -14069 14442#1 14423#0 14428#0 14445#1 13345 -14089 -14449#0 -13283 14165#1 -13649#0 14168#1 -13313 -14421#0 -13312 14449#0 13328 14445#3 14069 -13624 14444#1 14270 -14656 13197 14091 -14444#0 -14426 13632 14429#3 -14565#3 14093 14439#1 13653#2 -13630#5 -13656 14652 14732 -14654#1 -13651#1 -14438#0 14088 -14452#1 13354 13622 14419 14431#0 -13407 -14437#1 -14455#0 13512#0 -13598 14554#0 -13631 14311 -14559#1 14160#0 13560 -14096 14703 -14443#1 13616 -14554#0 -13512#1 -13412 -14046#1 14160#1 -14423#4 -13630#1 14680 -14433#0 13593 -13377 -14445#2 -14455#3 13233#1 -13655#1 14273 -14432#1 14654#2 -14417#2 13635#0 14423#3 -14088 -14621 14554#5 14608#0 -13647 13584#4 -14397#4 -14400#1 -14429#4 -13649#4 -14439#1 14161 -14437#2 13242 14397#1 -14044#1 14429#2 14452#2 14162 14608#1 -13311 13344 -13408 -14565#0 -14448#0 13376#1 14433#0 -14447 14428#1 14399#1 -13318 14165#0 -14031 -14134 -13419 14094 -14442#0 14397#4 -14423#2 -14092#2 13564 13419 14427 -14423#3 -13309 13659#3 -14399#2 -13616 14423#1 -14044#0 13637 14580#1 -14445#4 -14064 -14435#0 14554#7 14630 -14439#3 -14446#4 14455#4 -13661 14670 13329 13416#1 13649#3 14046#0 14440#1 -13630#2 14448#0 14431#1 -13659#2 13584#3 -14446#1 14293 14444#0 14438#1 14422#1 14583 14400#4 13288 13590 -14434#0 -14653 13342 13417#1 14163 14096 14441#1 -13649#3 14608#2 13626 -13286 -13653#4 -14452#2 -14431#2 -14554#2 13589 14134 -14439#0 14164#1 -14455#4 14436#0 14423#2 -13599 13421 14423#4 -13627 13629#1 14170 14455#1 -13650#1 -14152 -14423#0 -14644 13512#1 13630#4 13409 13513#2 14417#2 -14398 13588#1 -14422#2 -14130 13659#2 14439#0 13630#2 -13620 -14067#0 -14091 14420 -14441#1 13630#1 -14092#0 13513#3 13631 14425 13653#3 14455#5 -13638#1 14621 14095 -14092#1 13619 14616 -14654#2 -13314 -13353 -14429#2 -14440#1 14313 -14067#1 -14441#0 -13354 13313 -14399#0 14397#2 -14428#1 14445#4 14445#0 -13409 13635#1 13289 -14087 -13653#5 -14452#0 -14425 -13654#0 14704#0 14565#3 14455#2 -14086#0 13649#4 13661 13416#0 -13622 -13560 -14432#0 -14429#1 14437#0 13630#5 14446#4 14704#1 -13291 -14654#0 13690#1 -14566 -14455#2 14656 14441#0 14437#2 13623 13633 14067#0 -14446#2 -13653#1 -14429#3 13511 13592 -14093 14559#2 -13513#1 -13617 14092#0 14274 14450 -14095 14559#3 13278 14421#0 -14400#4 -14068#0 -14400#0 13290 -14436#0 14006#2 13346 14421#1 -14397#0 14417#1 -14429#0 14046#1 13347 13651#0 14435#1 13655#0 -14068#1 -14450 13513#0 -14433#1 13317 13653#0 14400#2 -14400#2 -14630 13316 14046#2 14455#0 -13634#0 13315 13649#2 13513#1 -13649#2 14068#1 -13635#1 13286 -13655#0 14309 14438#0 -14437#0 -14066 -14435#1 13657#1 14006#3 -14090 -14424 14433#1 14068#0 14554#2 -13637 14622 14436#1 14422#2 -13653#0 14654#1 13537#1 14449#1 -14423#1 13591 -13513#3 13311 -13641 -13513#0 -13630#4 14428#2 14554#4 13651#1 -14400#3 -14445#3 -14554#4 14559#1 14644 -13288 14044#1 14312#1 -14554#6 -14435#2 -13410 -14444#1 14417#3 14446#1 -14443#0 -13636 13641 -14436#1 -14430 14452#0 13650#1 14086#1 14446#2 13656 14168#0 14554#3 -14559#3 14164#0 13353 13376#0 14006#0 13634#0 13545 -14427 13638#0 -13537#0 14445#2 13343 -13285 13312 -14437#3 -13628 -13633 14044#0 14437#3 -13512#0 14443#1 13630#6 -13623 -14417#0 -14431#0 13624 14447 -13406 13638#1 14090 -14397#2 -14417#3 13377 14169#1 14397#0 13655#1 -13545 -13416#0 -14622 -14446#3 13625 14580#0 -13690#1 14426 -14554#7 13588#0 -14559#0 -14554#5 -13649#1 -14094 14421#2 -13659#3 -14438#1 -14445#0 14171 -14419 13598 14068#2 -14421#1 13640 14310#0 13653#1"/>
    <!-- id="13" name="Beausoleil" -->