
<tazs> 
    <!-- id="33" name="gw33" -->
    <taz id="33" edges="152268 152269"/>
    <!-- id="45" name="gw45" -->
    <taz id="45" edges="153652 152550"/>
    <!-- id="34" name="gw34" -->
    <taz id="34" edges="153341 152539 -152543 -153341 152189 -153342 153342 152543 -152187 -152539"/>
    <!-- id="44" name="gw44" -->
    <taz id="44" edges="152570#1 -152570#1"/>
    <!-- id="43" name="gw43" -->
    <taz id="43" edges="-153432 153432"/>
    <!-- id="32" name="gw32" -->
    <taz id="32" edges="152521#0 152319#1"/>
    <!-- id="42" name="gw42" -->
    <taz id="42" edges="153448#0 -153448#0"/>
    <!-- id="41" name="gw41" -->
    <taz id="41" edges="153456 -153456"/>
    <!-- id="31" name="gw31" -->
    <taz id="31" edges="-152187 -153474 153474 152189"/>
    <!-- id="1" name="Monaco" -->
    <taz id="1" edges="-153437#2 152660#5 152675 -152225 153295#0 -152677 152133#2 -152862 152820#1 -152697#5 152609 -152832#2 152890#0 152934#1 -152983#0 152601#1 -152780#1 153401#3 -152158 -153555#2 152455#0 -152382#3 152933#1 153226#1 153245#1 153304#0 152611#1 152756 152961#0 152708 152170#1 152955#4 -152602#0 153124#1 153509#0 153152 153217#0 153101 153213#1 152644#0 152779#1 153294#0 -152814#3 153223#0 152398#3 152832#4 -152937#3 152350#1 -152766 153125 152505#1 -152394#3 -152673#3 152967#4 -152468#1 152955#1 -152888#0 -153635 -152610 153610 152230 152212 152866#2 153281 152940#0 152664#1 153271 153442 152149#3 -152826#0 153555#1 -152611#0 152602#2 -152879#0 153132 153545#2 153411#3 152349#2 -152992#5 -152934#1 152643#1 -152289 -153411#0 -152661 -153409#8 152645#5 153547 -152531#6 152292 -152660#3 -152583#3 153284#0 -153394#0 153279#1 -152933#3 -152673#2 152698#1 -152702#1 152462#0 152663#8 153651 152983#1 152450#4 153220#2 152599 -152814#1 -152778 152531#2 -152455#1 152870#2 153122#1 152170#0 152308#2 152151#2 152645#4 153392#4 152452#0 153285 -152468#0 152644#6 -153392#1 -152827#1 -152601#2 -152530#6 -153552 153648 -152455#0 152785#1 153376#0 -152762#0 152937#2 -152891#0 152856 153439 152941#2 152797 -152654#1 152767 -152706 -152531#0 153409#13 153240 -152963 -152765 -152690#1 152697#0 153110#1 152663#3 -153644 152293#1 153220#3 -152222 -152286 -152645#5 152282 153603 152808#1 152890#1 152965#1 152501 152602#7 152861 152956#8 -152689#2 152166#0 152647 152452#1 152216 -152662 -152808#0 152860 -152654#0 152937#0 152978#4 -152936 152531#0 -153550#0 153191#0 -152645#3 -153000 153076 152156#3 152359#3 152578#4 152956#7 152768 152853 152382#2 152932 -152757 -152684#2 152651 152684#2 152810#5 -152487#1 -152657 -152869#2 152771#5 152151#0 152992#8 152882#1 -152487#2 152707#3 153282 152956#10 -152681#2 152880#0 152606 153492#3 -153375 152152#1 152530#5 152824 153137#0 -152380 153000 153211 152935#5 152697#2 -152817#2 -152832#6 153138 -152650#2 -153376#0 152962#0 152884 152150#1 153316#1 -152663#6 153409#8 -152856 -152704#1 -152131#1 153267 -152666#1 152534#1 -152821#1 152978#3 152689#2 153216#2 -152651 152819#0 152343#0 152672#1 -152869#1 152457 -153636 152583#0 152672#0 152610 153146#0 152131#0 -152704#0 -152784 153250#2 -152487#0 152956#4 -153370#11 -152823#1 153072 -152642 152874 -152466 -152857 152261 -152935#0 -153401#0 152669 -152810#2 -152702#0 152394#4 152663#4 153283#0 -152583#2 -152933#2 -152534#1 -152644#3 152152#2 -152357 152668#1 -152805 -152681#0 -153327#1 -152965#1 153162 -152707#0 152806#0 152757 152799 153517 153489 152810#0 152202 152867 152220 153409#11 -152226 152684#0 152971#3 -152699 152672#4 153071 152969 153106 153402#1 -152301 -153555#0 153226#3 -152680 153555#2 152579#0 -153401#3 152226 152789 153157#1 -152789 152157#1 152938 152653#0 -152828#6 153004#7 152394#3 153122#2 152171 153327#0 152933#3 152605 -152644#2 152804 -152392#2 -152453#1 -152663#10 -152644#4 152608 153213#0 -153376#4 -152305 -152828#3 152161#1 152602#1 -152815 152825 152897#1 152602#9 152875#0 152994 152963 -153409#5 152828#5 152648#0 152872 153146#1 152359#0 152665#0 -152883#1 152531#4 152881 -152793#0 152673#2 153286 153244#1 152886 153583 152393#2 -153376#1 152697#3 152591#1 153333 152712 152660#3 -152813#3 152695 152809 152689#0 152589 -152304 -152648#0 -152689#0 153172 -152814#2 152870#0 153156 -152943 152644#4 -152578#4 152450#2 152883#1 152462#1 152970 -152509#1 -152763#3 152693 -152602#4 152813#0 152697#5 -152602#3 -152646#2 152664#2 153244#0 153376#1 -152866#3 -152131#0 152308#0 -152682 -152965#2 152814#3 -152531#4 153221#1 -152769 -152813#2 -152762#1 152458 152349#1 153290 -152883#0 -152613 153227#0 -153392#3 -153410#0 153376#4 152152#0 152357 152832#5 153154#2 153266#0 -152944#0 153105 153226#0 -152394#2 -152878 152454#0 152346 152602#4 -152891#1 152278 -152384#1 -153397 -152602#9 152646#2 153545#1 -152656#1 -152894#1 -152534#0 -152653#0 152149#5 152468#1 153316#0 152393#0 153129 -152462#1 -152315 153476#7 -152393#0 -152880#0 153509#1 -152783#1 -152672#2 152314#4 -152868 153115 152992#2 152655 -152382#0 153214 -152698#1 152159#0 152763#2 152460 153296 152894#2 153139#0 153410#2 152590 -152130 -152777 152134 -152867 -152216 152793#0 153411#2 152827#1 152648#1 -153400#1 153113 -152394#1 152379#1 152288 153159 153645#1 152667 152711 152870#3 152832#6 153136 -153555#4 -152932 152381 -152788#0 -153550#1 153269#0 152871#1 153331#1 152394#2 -152598 -153402#1 -152579#0 152156#0 152823#0 -152908#8 153507#0 152894#1 153229 152820#0 153507#2 -152771#2 152653#2 152863 152663#10 152678#2 152814#0 152135 -152487#3 152762#0 152453#1 -152859 152663#5 153264 153096 -153325#3 152530#2 152149#4 -152779#1 -152684#0 -152417 153127 -152782 153409#16 -152675 -152414 153288#0 152819#1 152814#2 -152668#1 -153004#6 152702#0 152603 152808#4 153395#0 153644 -152956#10 152189 153079 152956#5 -153634 152585 -152693 153409#9 -152170#0 -152394#4 152530#6 152578#3 -152296 152660#1 -152578#1 -152644#0 -152672#0 152643#0 153325#3 152345 -152220 152702#3 152826#2 152285 152807 152672#2 -152819#0 152955#3 153401#2 152896#1 153283#1 152866#3 153110#0 152971#4 -152876#1 153584 153306 152817#0 -152350#0 152379#0 -152285 153401#1 153513#3 152583#2 152769 153266#1 -152810#8 -152650#3 -152993 152581#2 -152935#2 -152530#7 -152817#0 -152810#0 152666#2 152869#0 152832#2 152493 152771#2 152761#0 153144 152701#1 153270#0 152649 152415#1 -152664#1 -153402#2 152817#2 -152673#4 152294 153168 153109 153414 152763#3 152509#0 152854 -152709 -152599 152808#2 -152881 152978#2 152703#0 152802 152864 152130 153193 152956#3 -152650#0 152967#5 152984 153283#2 -152695 153513#0 152293#0-AddedOffRampEdge 152349#3 152878 153277#0 153145 153605#1 153634 -152697#4 -153645#1 152832#3 152983#2 152935#2 153217#1 153221#4 -152416 153622 152965#0 -152783#2 -153409#4 152383 -152230 -152832#0 -152645#1 152875#1 -152785#4 -152979 153245#0 153409#5 -153269#1 -153002#0 -152171 -152385 152447 -152690#0 152795 -152812#3 152870#4 153612#0 153221#5 152308#1 -152956#1 153550#2 153221#6 -152828#4 152165 -153401#1 -152791#1 152663#6 153507#1 152662 152382#1 -152783#0 -152608 152656#0 -152647 152941#1 153194 153280 152944#1 -152665#0 -152813#0 -152660#1 152783#0 153641 152934#0 152283 152156#2 -153544#1 153149#1 152806#1 -152136 -152774 152707#1 153103#0 152935#4 -152992#4 153269#2 -152542 -153394#2 -152941#2 152787 152219 152391 -152382#1 -152589 152398#0 152677 153304#2 -152828#1 -152602#6 -152812#0 152646#0 152287 -152800 -153409#10 -153331#1 -152992#3 152992#6 153175#0 153248#2 153287#0 -152663#4 -152585 152414 153250#1 153103#1 152660#6 152149#1 152810#1 152885 -152530#0 153440#4 153147 152387 152971#2 -152806#1 152780#1 152796 153325#0 152304 152771#0 -153411#3 152530#0 153650 -152898#0 -152360 152763#1 152505#0 152783#1 -152764 -152780#0 -152861 153300 153435#2 -152896#0 -152645#4 153549 -152487#5 152487#2 -152956#3 152832#0 -152663#1 -152754 152666#4 153112 153402#0 -152828#0 153228 -153409#13 -152212 -152702#2 -152962#1 152700 -152161#1 -152670#0 -153435#2 -152650#1 153548#0 153642 -152187 152314#1 153139#1 153216#4 153394#3 -152663#8 -152824 153294#2 152801#1 -152644#5 -152705#2 -152937#2 153225 152376 -152165 -152379#1 -153414 153392#2 153284#2 -152935#4 152871#2 -152832#4 152762#1 152808#3 153080 153212#1 152681#2 152822 -152219 152879#2 -152600 152654#1 -152832#1 153173 -152992#7 -153327#0 153241 -152681#3 -152786 152289 -152807 153002#0 -152394#0 152600 -153409#12 -152945 153515#1 153371 152602#8 153103#2 -152804 152774 -152449 152296 152156#4 152459#0 153298#1 152305 -153269#0 152644#5 152785#0 -152459#0 -152653#1 152349#4 152828#1 153150#1 152385 152775 152448 153410#0 153247#1 -153333 -152602#8 153605#0 152343#1 -152821#0 152486 153544#1 153612#1 -153410#1 153645#0 -153645#0 152855 153139#2 153191#1 152821#0 153102 152415#0 152870#5 -152583#1 152602#0 153254#0 -152605 -152896#1 152933#2 -153400#0 -152810#7 153118#0 152865 152801#0 -152965#3 -153440#2 152604 -152531#1 153555#3 152155#3 -152665#1 -152509#0 152418#0 152945 -153433 153635 152262 -152992#2 152384#0 153200 -152879#1 -152597 153111 153201 -152954 -152880#1 152487#3 -152377 -152992#8 -152578#3 152783#2 -152668#2 -152391 152781#2 -152701#0 152131#1 153587 152759 152879#1 152785#4 152792#0 152995 152698#0 152291 153544#2 -152798 -152801#1 153198#1 153279#0 152697#4 -152659 152992#5 153114#0 -152888#1 153119 152660#0 152779#0 -152288 -152763#1 -152447 -152819#3 152866#5 152602#6 153394#2 -153331#2 153513#1 152706 152578#2 -152827#0 152394#1 -152779#0 153221#0 152666#0 152763#0 -152866#2 -152166#1 153174 153270#3 153216#0 -153392#0 -152933#0 -152538 -152660#5 152961#1 -152667 -152787 152151#1 -152663#7 -153440#4 152892 152810#4 153409#10 152813#3 153117 -152771#5 152810#9 -152453#0 153331#2 -152649 -152808#3 -152663#3 -152601#0 153297#0 -153410#2 152678#1 -152801#2 153392#1 152419 153224#2 152597 -152458 -152453#2 -153409#7 -152697#1 152277 -152941#0 152814#1 -152772 -152448 152965#2 -152663#9 153609 153155 -152215 -152343#0 152158 153278 153561#0 153148#1 -152812#1 153370#10 153247#0 -152705#0 152828#6 -152894#2 152858 -152806#2 -152579#1 -152803 -152967#0 -153376#3 152780#0 152810#10 152788#0 -152645#2 152650#3 153270#4 152684#1 -153411#1 152657 -152656#0 152308#3 152680 153221#2 153440#3 152782 -152872 153592#0 152315 152821#1 152607#0 153409#4 152666#3 152689#1 152149#0 -152673#0 -152984 152794 -153545#0 -152771#4 152668#2 -152575#0 -152698#0 -152710 -152702#3 -152810#4 -152664#2 152150#0 152674 152701#0 -152459#1 152710 153291#1 153227#1 153287#1 -152684#1 -152655 -153370#12 153401#0 153409#6 152643#2 152781#1 153409#7 -152711 152681#3 152827#0 -152602#1 -152653#2 153617 -152694 153175#2 153400#1 152575#0 153302 152645#1 -152812#2 -152530#5 -152697#2 152709 152930 -153547 153171 152703#1 152156#1 153647 -152379#0 -153409#16 -152287 153294#1 -153004#7 152133#6 153409#12 152644#2 -152776 153157#0 152704#1 152396 -153554 152937#1 -152796 152598 152944#0 152790 153397 152482 -152612 152128 152293#0 153154#1 153216#3 152937#3 -152460 -152820#0 -152393#2 -152802 -152666#4 152702#1 152898#0 152956#1 153248#1 -152678#2 152267 152882#0 -152418#1 152602#5 152758 153165 -152810#10 152679 153097 153244#2 152487#5 152870#1 153394#0 -152586#1 -152944#1 153613 153269#1 153325#2 -152890#1 -153392#2 -152961#0 152394#0 153148#0 153210 -152795 152359#1 153099#1 152454#1 152862 152992#4 -152658 152468#0 -152660#4 152510 153582 153370#11 -153409#15 153611 153546 153602 -152129#0 152810#2 -152384#0 153148#2 -152202 152894#0 -152799 152154#1 -152965#0 152673#1 152487#0 -152672#4 152418#1 152286 -152792#0 -153646 -152814#0 -152606 152785#2 -153435#0 152392#2 153216#1 152663#2 -152669 -152810#5 -152679 153223#1 153435#0 152266 152942 -152456 153548#1 -152376 -152956#2 -152701#1 -152601#1 152455#1 153095#1 152645#3 -152810#6 152661 153149#0 153153 153137#1 153592#1 153081 -153556 152766 153293#2 -152660#0 152579#1 152773 153270#2 -152874 153220#0 -152933#4 -152820#1 153130 -152806#0 153550#1 -152666#3 -152877 -152580 152611#2 152295 -152860 153160 152133#0 153275#1 -152933#1 152707#0 152813#2 152449 -152700 153514 152578#0 152450#1 152939#1 152810#8 152650#4 152215 152166#1 152663#9 152329 152509#1 152778 153395#1 -152866#1 152956#6 -152381 -152159#0 152819#3 152801#2 -152785#0 -153440#3 152456 -152871#0 152494 -152768 -152785#2 152935#1 -153370#10 -152967#5 152933#0 152770 -152482 -152956#7 -153395#1 153292#1 152646#1 -152578#2 153295#1 152888#1 153409#1 -152759 -152660#2 153126 -153545#2 -152712 -153409#11 152808#5 152682 152699 153508 153402#2 -152393#1 152601#2 -152876#2 152810#6 153007#0 152464 -152808#2 -152892 152694 -152797 -153409#3 152313 152690#1 153077 153552 153220#1 153270#1 153250#0 152937#4 152705#1 -152956#4 -152586#0 152793#1 -152586#2 153550#0 152399 -152763#2 -152863 153004#6 -153392#4 153161 152663#11 153409#14 -152813#1 152673#0 -152530#4 -152602#2 153212#0 152659 152586#1 152602#3 -152462#0 153226#2 -152602#7 -152418#0 152159#1 153541#0 152454#2 -152771#0 -152823#0 152866#4 -152602#5 152965#3 152781#0 152755 -152890#0 152140 153250#4 152971#1 152940#2 -152882#0 153284#1 -153395#0 153094#0 152891#2 -152876#0 153167#1 153410#1 -152578#0 152777 153154#0 152828#3 152962#1 -152707#2 -153376#2 152658 152764 153392#3 -152956#0 152813#1 152663#1 152993 152670#1 -152646#0 152487#1 -152607#0 153134 153295#2 152476 153277#1 153268 153175#3 -152644#1 152934#2 -153007#0 -152961#1 -152885 152812#1 152806#2 -152666#0 153544#0 -152678#1 152955#5 153548#2 153250#3 152360 -152956#5 152771#3 -152329 153245#2 153591 152943 152530#4 -152763#0 153327#1 -152897#1 152805 -152808#4 152798 152645#2 152817#1 153118#1 -152707#3 153376#3 152869#2 -152650#4 152613 152656#1 -152382#2 152133#7 -152808#1 -153325#1 152964 153409#15 152896#0 -152663#2 -153401#2 152895#1 -152808#5 -153331#3 153298#0 152895#2 152645#0 153108 -152170#1 153007#1 -152645#0 153150#0 152572 152146 153411#0 152653#1 152506 153123 152702#2 -153549 -152826#2 -152531#2 153287#2 -153394#1 -152810#1 153541#1 152785#3 152866#1 152155#2 152956#2 152815 152828#0 152771#4 152879#0 152382#3 -152819#1 152803 -152827#2 153133 -153555#3 152580 -152794 152611#0 -152869#3 -152871#1 -152935#5 -153325#2 153166 153254#1 -152864 153434 153325#1 152155#1 -152792#1 -153409#1 152772 -152854 152871#0 152167 -152689#1 152660#4 -152591#1 152280 -152895#0 -152788#1 152869#1 152955#2 -153550#3 152583#3 -152828#2 -152883#2 152876#2 152936 152812#2 152316 152670#0 -153544#0 152155#4 152417 -152697#0 152978#1 -152692 -152886 152812#0 -152666#2 -152343#1 -152530#2 -152995 152673#4 -153409#0 152983#0 153555#4 152812#5 -152705#1 -152983#1 152666#1 -152985 -152644#6 153636 153646 153163 -152664#0 152992#7 -152707#1 152828#2 153409#3 -152663#5 -152163 153513#4 152499 -152159#1 152754 152644#3 -152673#1 152707#2 152816 153292#2 153394#1 153249#0 -152869#0 153295#3 -152670#1 -153007#1 153586 -152793#1 153649 -152643#0 152538 152876#1 153167#0 -153396 -152811 152377 -152832#5 153513#2 -152383 -152937#1 -153544#2 153376#5 153516 153073 -152672#3 152359#2 152459#1 -152674 -152884 -152756 153175#1 152823#1 153222 153411#1 -152771#3 -153555#1 -152930 -153402#0 152578#1 152859 -152280 -152967#4 152891#0 -152611#2 153175#4 152978#0 -152773 -152703#0 -152810#11 152307 152664#0 153276 -152894#0 152217 152663#7 152873 152869#3 152697#1 -152392#1 152692 153548#3 153095#0 -153331#4 152939#0 153487#0 -152135 152150#2 153291#0 153275#0 -152387 153265 -152295 152788#1 -152660#6 152133#5 152819#2 152810#3 153227#2 152586#2 152931 152149#2 153199 -153545#1 152880#1 153375 153114#1 152812#4 -152345 152642 152301 152672#3 153293#1 -152501 152673#3 -152476 -152758 152705#2 152895#0 152163 -152962#0 152398#2 152450#3 -152166#0 153197 152654#0 -152451 -152855 153224#0 152133#1 152650#2 -153269#2 152384#1 152810#11 153158 152314#2 -152817#1 153289 -153476#7 152453#2 -152673#5 152812#3 -152801#0 152761#1 -152879#2 -152895#1 -153411#2 153135 152350#0 152877 153301 -153409#6 -152611#1 -152873 -152785#3 152832#1 152133#3 -152956#6 -152866#4 153550#3 -152161#0 153288#1 -152826#1 153297#1 -153394#3 -152819#2 153249#1 -152992#6 152776 152827#2 -152937#0 -152785#1 -153325#0 152883#2 152378 153556 152155#5 -152603 153224#1 -152865 -152810#9 153392#0 152583#1 -152672#1 153122#0 153221#3 153263 152581#1 153331#4 153151 -152770 -152809 -152697#3 -152934#0 -152934#2 152650#0 152392#1 152665#1 153509#2 152940#1 -152643#1 152133#4 152992#3 153585 -152266 152941#0 -152853 153292#0 153396 153246 -152866#0 152792#1 -152294 -152882#1 -152812#4 -152935#1 -152790 -152810#3 -152832#3 -152983#2 153433 -152128 -152956#8 152933#4 153142 -152643#2 153248#0 152826#1 -153550#2 152531#1 152868 152154#0 152985 -153487#0 153545#0 152542 152979 153304#1 153107 -152396 -153472#0 152380 152791#1 152454#3 153331#3 152393#1 -152941#1 152451 153440#5 153376#2 152416 153293#0 -152708 -153409#14 -152775 -152464 152153 152534#0 152155#0 -152646#1 152398#1 -152609 -152828#5 152382#0 153243 153099#0 -152217 -153546 152531#6 152810#7 152225 153409#0 153581 -152583#0 152612 152650#1 153219 152466 -152604 152530#7 152828#4 152644#1 -153409#9 152660#2 152453#0 152314#3 152673#5 152866#0"/>
    <!-- id="14" name="Roquebrune-Cap-Martin" -->
    <taz id="14" edges="152556 -153476#6 -153339#0 -153367#1 -152461#0 152614#1 -153367#3 152461#0 153529#2 -153322#1 -152539 -153074 153476#0 153370#0 152557 153195 153481#0 153363#1 153503 153624#0 -153018 152573#0 152461#1 -153346 152508#4 153476#3 152436#1 -153370#0 -153357#0 153233 153017 153481#4 -152579#0 152303 153343#0 153481#2 153087#1 153011 -153573 152523 153358#0 153345#4 152469 153347 153074 153537 -153481#0 -153368#0 -152239 -152549 -152573#4 -153374#1 -152577#1 153351#3 -152953 153357#0 -152336 -153368#3 152541 152552 -153365#1 152437#2 153232#1 153339#0 152966#0 153351#0 -153367#2 152341#1 -152469 -152337 152268 153345#1 153056 152565 152577#5 152212 152189 152572 -153364#1 -152553#1 152585 153504 -153017 -152141 152344 152168 -153320 -153354#0 -153357#1 -152303 -153348 153339#2 153361#0 152436#0 -153319#4 153087#0 153088 153322#4 153353#2 -153476#4 -153476#5 152989#0 152269 -152544 -153350#1 152966#1 -152577#3 152204 153358#1 -152215 -152564 152573#1 152488 -152523 -152559#0 -152583#3 -152577#2 -153011 -153344#0 153231 152583#2 152564 -153319#1 152330 152990#1 -153015 -152344 -153010 152581#2 -153576 -152988 -152579#1 -153352 153350#1 -153481#2 152559#1 153572 -152235 152580 153614#1 -153572 152272 153339#3 -153358#0 -153344#1 153015 -153012 -153322#3 152214 -152437#3 153083 152255 152545 153652 -153368#2 -152574#1 -153319#0 -153349 152559#0 -153476#1 -152488 153344#1 153374#1 152437#3 152546 152280 -153353#1 -153343#1 -153354#1 153082#1 153320 153192 -152241 152141 152583#3 -152168 153090#0 -153339#3 -152575#0 152237 -153543 -152560 153600 152968#1 153089 152562#0 -153481#4 153377#3 153588 -153351#0 -153574#0 153091#0 153362#1 153543 153052 152435 152562#1 152336 153010 153367#2 -153488 -152435 152560 -153476#3 -152333 153367#3 -153564 -153350#0 152254 153574#1 152575#0 153573 -153368#4 -153367#0 152216 152573#3 -152543 -152244 -153321#0 153016 152968#2 -153321#1 -152436#0 -153351#2 -153377#0 153091#1 153093 -152968#1 -153476#0 -153322#0 -153353#0 -153345#2 152437#1 153342 -153487#3 -153343#2 -153367#4 -153344#2 -153360#1 153351#4 153624#1 -152556 153346 153086#1 152241 -152461#1 152554#2 152238 152514 153542 153345#2 153362#0 -153363#0 -152242 -152332 153377#0 -153014#0 152515 152575#1 153018 -152614#1 -153363#1 153350#0 153502 -153339#1 -152989#0 152555 153356#1 152573#2 -153372 -153008#0 153361#4 -152571 -153347 -153377#3 153481#1 -152209 -153481#3 153321#2 153377#1 -152548 153355#1 -152573#1 -152577#5 152242 153355#0 153374#2 152342#1 153354#1 152539 -152436#1 -152547 -152968#0 -152279 152244 153476#1 -153342 152302#1 152577#0 -152280 153008#1 -153365#0 153476#4 153529#1 -152990#1 -152585 -153052 153339#1 153590 153367#1 -153377#2 153356#0 153353#0 153345#3 -152583#2 -152554#6 152217 153360#0 152334 153372 -153350#2 153360#1 153357#1 153476#6 153501#0 -153345#0 152554#3 153487#0 152270 153574#0 152968#0 153084 153014#2 153344#2 153086#0 153341 -152437#1 -153361#1 -153377#1 152989#1 152577#3 153361#3 152554#6 153614#0 152991 152579#1 152579#0 153196 153364#1 -153374#2 152540 -152335 -153351#4 153319#2 152516 153364#0 153365#1 153487#3 153576 -152580 152986 -152554#5 -152561 -152554#1 -152212 -153362#0 152522 153322#1 -153377#5 153082#0 -153319#3 153359#3 152553#1 152239 152279 152302#0 -153366#0 -152573#3 -152243 153368#3 -153321#2 152550 153368#1 -152187 152578#0 152558#0 -153359#2 152215 -152990#0 -152558#1 -152989#1 -153476#7 -153014#1 152205 -153357#2 -153343#0 -153355#0 -153322#2 -153364#0 152235 -152169 -152331 -152540 153623 152341#0 152547 -152575#1 -153359#0 152548 152335 -152554#2 152169 -152577#0 -153351#1 152437#0 -152991 -153351#3 153349 152577#4 -152968#2 -152555 152271 -152161#0 152508#3 -152546 153357#2 -153361#0 -152562#1 153322#2 152210 152211 152513 -152437#2 152990#0 153351#2 -153368#1 -153379#5 152332 152273 -153322#4 152508#2 153085 153351#1 -152554#3 -153481#1 153319#4 -153345#3 153367#4 153359#0 153012 -153345#1 -153341 153574#2 153371 -152553#0 153344#0 152549 -152211 -152240 -152437#0 152512#1 -152341#0 -152237 152554#1 152554#5 153348 153353#1 153361#1 153359#2 153377#2 153319#3 -152334 152581#1 153235 153350#2 153529#0 153014#0 153369 153564 -153574#2 153234#2 -152522 -153359#3 -152558#0 -152552 -153014#2 152517 -153369 153363#0 153476#2 152243 153488 -152565 153366#0 153529#3 -153542 153322#3 -153574#1 153501#1 153232#0 153366#1 153367#0 -153009 -152562#0 152337 152544 -152986 152573#4 153345#0 -152238 153014#1 153368#2 -152341#1 -153361#4 -153487#0 152577#2 -153361#3 -152559#1 152346 152558#1 -153056 152574#1 -152484 152577#1 -153013 -153377#4 -153374#0 152333 153013 153476#5 153343#1 -152554#0 -153353#2 152571 153343#2 153374#0 -153016 -153358#1 152512#0 -153355#1 152543 153321#1 -152541 153092 -152966#0 -153360#0 152484 -152577#4 152508#1 153359#1 -152573#2 -152578#0 153354#0 153368#4 153476#7 -152214 -153551 -152217 153377#4 153319#0 -153356#0 -153362#1 -153476#2 153377#5 -153359#1 -153345#4 -153339#2 -152573#0 153090#1 -153319#2 153365#0 153551 -152966#1 -153366#1 -152216 152561 153234#1 153481#3 153319#1 -152551 152990#2 -152557 153215"/>
    <!-- id="13" name="Beausoleil" -->