<types xmlns:xsi="http://www.w3.org/2001/XMLSchema-instance" xsi:noNamespaceSchemaLocation="http://sumo.dlr.de/xsd/types_file.xsd">
    <type id="highway.primary"            sidewalkWidth="2"   disallow="pedestrian bicycle rail rail_urban rail_electric tram ship"/>
    <type id="highway.primary_link"       sidewalkWidth="2"   disallow="pedestrian bicycle rail rail_urban rail_electric tram ship"/>
    <type id="highway.primary_bridge"     sidewalkWidth="2"   disallow="pedestrian bicycle rail rail_urban rail_electric tram ship"/>
    <type id="highway.primary_tunnel"                         disallow="pedestrian bicycle rail rail_urban rail_electric tram ship"/>
    <type id="highway.secondary"          sidewalkWidth="1.5" disallow="pedestrian rail rail_urban rail_electric tram ship"/>
    <type id="highway.secondary_link"     sidewalkWidth="1.5" disallow="pedestrian rail rail_urban rail_electric tram ship"/>
    <type id="highway.secondary_bridge"   sidewalkWidth="1.5" disallow="pedestrian rail rail_urban rail_electric tram ship"/>
    <type id="highway.secondary_tunnel"                       disallow="pedestrian rail rail_urban rail_electric tram ship"/>
    <type id="highway.tertiary"           sidewalkWidth="1.5" disallow="pedestrian rail rail_urban rail_electric tram ship"/>
    <type id="highway.tertiary_link"      sidewalkWidth="1.5" disallow="pedestrian rail rail_urban rail_electric tram ship"/>
    <type id="highway.tertiary_bridge"    sidewalkWidth="1.5" disallow="pedestrian rail rail_urban rail_electric tram ship"/>
    <type id="highway.tertiary_tunnel"                        disallow="pedestrian rail rail_urban rail_electric tram ship"/>
    <type id="highway.unclassified"       sidewalkWidth="1.5" disallow="rail rail_urban rail_electric tram ship"/>
    <type id="highway.residential"        sidewalkWidth="1.5" disallow="rail rail_urban rail_electric tram ship"/>
    <type id="highway.residential_bridge" sidewalkWidth="1.5" disallow="rail rail_urban rail_electric tram ship"/>
    <type id="highway.residential_tunnel" sidewalkWidth="1.5" disallow="rail rail_urban rail_electric tram ship"/>
</types>
