<?xml version="1.0" encoding="UTF-8"?>

<!-- generated on Thu May 24 10:07:30 2018 by Eclipse SUMO duarouter Version 629ca040dd
<configuration xmlns:xsi="http://www.w3.org/2001/XMLSchema-instance" xsi:noNamespaceSchemaLocation="http://sumo.dlr.de/xsd/duarouterConfiguration.xsd">

    <input>
        <net-file value="../scenario/in/most.net.xml"/>
        <additional-files value="../scenario/in/add/most.busstops.add.xml,../scenario/in/add/most.trainstops.add.xml,../scenario/in/add/most.parkings.add.xml,../scenario/in/add/basic.vType.xml"/>
        <route-files value="out/most.evehicle.trips.xml"/>
    </input>

    <output>
        <output-file value="../scenario/in/route/most.evehicle.rou.xml"/>
        <vtype-output value="/dev/null"/>
        <alternatives-output value="../scenario/in/route/most.evehicle.rou.alt.xml"/>
    </output>

    <processing>
        <ignore-errors value="true"/>
        <max-alternatives value="5"/>
        <remove-loops value="false"/>
        <repair value="false"/>
        <repair.from value="false"/>
        <repair.to value="false"/>
        <routing-threads value="4"/>
        <routing-algorithm value="dijkstra"/>
    </processing>

    <time>
        <begin value="0"/>
        <end value="84600"/>
    </time>

</configuration>
-->

<routes xmlns:xsi="http://www.w3.org/2001/XMLSchema-instance" xsi:noNamespaceSchemaLocation="http://sumo.dlr.de/xsd/routes_file.xsd">
    <vehicle id="evehicle_2_271" type="evehicle" depart="18026.00" departLane="best">
        <route edges="1256#1 1256#2 1256#3 1256#4 1256#5 1256#6 1256#7 -1248#12 -1248#11 -1248#10 -1248#9 -958 1248#11 1248#12 -1256#7 -1256#6 -1256#5 -1256#4 -1256#3 -1256#2 -1256#1 -1256#0 -1372#0 -1369#3 -1369#2 -1369#1 1371 728#1 728#2 728#3 728#4 -1365 1366 -730#8 -728#5"/>
    </vehicle>
    <vehicle id="evehicle_1_418" type="evehicle" depart="18036.00" departLane="best">
        <route edges="315 162 316#0 316#1 201 211#3 211#4 202 205#3 -197 879#5 879#6 879#7 879#8 -741#1 -741#0 -1480#3 -1480#2 -1480#1 -1480#0 -888#1 -888#0 863#0 863#1 863#2 116"/>
    </vehicle>
    <vehicle id="evehicle_2_119" type="evehicle" depart="18205.00" departLane="best">
        <route edges="113 -1395#1 -1395#0 1393#0 1393#1 1393#2 1393#3 1390#2 1390#3 1390#4 1390#5 -1404#11 -1404#10 -1404#9 -1404#8 -1404#7 -1404#6 -1404#5 -1404#3 -1404#2 -1404#1 812#1 812#2 -208 -893 902#0 902#1 902#3 -817#1 -804#2 -804#1 -804#0 815#0 -1491#2 -1491#1 -1491#0 -209"/>
    </vehicle>
    <vehicle id="evehicle_2_84" type="evehicle" depart="18321.00" departLane="best">
        <route edges="-730#8 -728#5 -1365 1366 730#9 730#10 730#11 675 112 701#0 735 863#2 116 617#0 617#1 617#2 617#3 617#4 617#5 619 620 582#1 582#2 582#3 582#4 582#5 582#6 582#7 582#8 582#9 582#10 582#11 519#1 519#2 519#3"/>
    </vehicle>
    <vehicle id="evehicle_1_296" type="evehicle" depart="18391.00" departLane="best">
        <route edges="-728#0 -1369#0 -1373#1 -1373#0 924#1 925 729 717 698 1484#2 1484#3 743#0 743#1 888#1 1480#0 1480#1 1480#2 1480#3 741#0 741#1 879#11 878#1 878#2 -737#2 -737#0 15#6 15#7 -17 211#4 211#1 211#2 -201 173"/>
    </vehicle>
    <vehicle id="evehicle_3_435" type="evehicle" depart="18426.00" departLane="best">
        <route edges="1265 -1264 -1269#0 911#1 456 -913 -1422 -1285#2 -1282#2 -1282#1 -1282#0 -1287#1 -1287#0 851#3 851#0 -468#6 -468#5 -468#3 -468#2 -468#1 -468#0 1300#1 1408#0 1408#1 1408#2 1408#3 1408#4 1408#5 1408#6 1408#7 497#1 243 494#0 494#1 494#2 494#3 494#4 351#2 351#3 351#4 -350 -105 -519#3 -519#2 -519#1 -519#0 -582#10 -582#9 -582#8 -582#7 -582#6 -582#5 -582#4 -582#3 -582#2 -582#1 618#0 618#1 -691#5 -691#4 -691#3 -691#2 -691#0 726#0 726#1 726#2 857#2 857#3 736 879#1 879#2 363 365 -366#0"/>
    </vehicle>
    <vehicle id="evehicle_1_241" type="evehicle" depart="18524.00" departLane="best">
        <route edges="712#0 712#1 1480#3 741#0 741#1 879#11 878#1 878#2 -737#2 -737#0 15#6 15#7 15#0 16 887 316#0 -856#2 -856#1 -856#0 298#0 819#0"/>
    </vehicle>
    <vehicle id="evehicle_1_33" type="evehicle" depart="18549.00" departLane="best">
        <route edges="862#0 862#1 675 112 701#0 735 863#2 116 617#0 617#1 617#2 617#3 617#4 617#5 619 621#0 621#1 594 447 561#0 562#0 562#1 562#2 562#3 562#4 562#5 562#6 -416#1 -520#9 -520#8 -520#7 -855#4 -855#3 -855#2 -855#1 -855#0 884#0 352 -353#1 -353#0"/>
    </vehicle>
    <vehicle id="evehicle_1_384" type="evehicle" depart="18591.00" departLane="best">
        <route edges="780 785 853 722 -719 -715 -690 689 688 -679 777 779 778 -776"/>
    </vehicle>
    <vehicle id="evehicle_2_279" type="evehicle" depart="18623.00" departLane="best">
        <route edges="-860#2 -860#1 -860#0 855#0 855#1 855#2 855#3 855#4 520#7 520#8 520#9 416#1 -562#6 -562#5 -562#4 -562#3 -562#2 -562#1 -562#0 561#1 561#2 1333#0 1333#1 1333#2 1333#3 1334#0 1334#1 1334#2 595 630#2"/>
    </vehicle>
    <vehicle id="evehicle_3_312" type="evehicle" depart="18646.00" departLane="best">
        <route edges="1267 -124 -1268 -126 -1266 -125 -1271 -128 -1269#1 -1269#0 911#1 456 -913 -1422 -1285#2 -1282#2 -1282#1 -1282#0 -1287#1 -1287#0 851#3 851#0 -468#6 -468#5 -468#3 -468#2 -468#1 -468#0 1300#1 1408#0 1408#1 1408#2 1408#3 1408#4 1408#5 1408#6 1408#7 497#1 243 494#0 494#1 -502#2 -502#1 -501 -176 506 -104 -860#4"/>
    </vehicle>
    <vehicle id="evehicle_2_450" type="evehicle" depart="18806.00" departLane="best">
        <route edges="1338#2 1338#3 1338#4 1338#5 1338#6 1338#7 1338#8 1338#9 -1252#2 -1252#1 -1252#0 -1343#1 -1343#0 1341#14 1341#15 1341#16 918 920 622#0 622#1 622#2 622#3 617#3 617#4 617#5 619 620 582#1"/>
    </vehicle>
    <vehicle id="evehicle_3_23" type="evehicle" depart="18915.00" departLane="best">
        <route edges="883 290 1578 223#0 223#1 223#2 223#3 223#4 223#5 223#6 223#7 223#8 223#9 223#10 295#1 295#2 818#0 818#1 908 730#0 730#1 730#2 730#3 730#4 730#5 730#6 730#7 730#8 730#9 730#10 730#11 675 112 701#0 735 863#2 116 111 369#0 369#1"/>
        <stop parkingArea="22418" duration="43200.00"/>
    </vehicle>
    <vehicle id="evehicle_3_319" type="evehicle" depart="18999.00" departLane="best">
        <route edges="-1264 -1269#0 911#1 456 -913 -1422 -1285#2 -1282#2 -1282#1 -1282#0 -1287#1 -1287#0 851#3 851#0 -468#6 -468#5 -468#3 -468#2 -468#1 -468#0 1300#1 1408#0 1408#1 1408#2 1408#3 1408#4 1408#5 1408#6 1408#7 497#1 243 494#0 494#1 494#2 494#3 494#4 351#2 351#3 351#4 -350 -105 -519#3 524#0 524#1 -520#0"/>
    </vehicle>
    <vehicle id="evehicle_3_187" type="evehicle" depart="19185.00" departLane="best">
        <route edges="-820 1386#1 926#0 926#1 117 1259 1578 223#0 223#1 223#2 223#3 223#4 223#5 223#6 223#7 223#8 223#9 223#10 295#1 295#2 818#0 818#1 908 730#0 730#1 730#2 730#3 730#4 730#5 730#6 730#7 730#8 730#9 730#10 730#11 675 112 701#0 735 863#2 116 617#0 617#1 617#2 617#3 617#4 617#5 619 621#0 621#1 594 447 561#0 562#0 562#1 562#2 562#3 562#4 562#5 562#6 -416#1 -520#9 -520#8 -520#7 -855#4 -855#3 -855#2 -855#1 -855#0 860#0 860#1"/>
    </vehicle>
    <vehicle id="evehicle_1_192" type="evehicle" depart="19290.00" departLane="best">
        <route edges="726#1 726#2 857#2 857#3 857#4 857#0 857#1 -726#2 -726#1 -720 -110 858#0 858#1 858#2 455 -683#2 -683#1 -683#0 -617#0 111 862#0 862#1 -730#11 -730#10 -730#9 -730#8 -730#7 -730#6 -730#5 -730#4 -730#3 -730#2 813 730#1 730#2 730#3 730#4"/>
    </vehicle>
    <vehicle id="evehicle_2_101" type="evehicle" depart="19330.00" departLane="best">
        <route edges="1580 -1404#3 -1404#2 -1404#1 812#1 812#2 -208 -893 902#0 902#1 902#3 -817#1 -817#0 895#3 803#0 885#0 885#1 358#2"/>
    </vehicle>
    <vehicle id="evehicle_1_317" type="evehicle" depart="19419.00" departLane="best">
        <route edges="-860#4 -860#3 -860#2 -860#1 -860#0 884#0 884#1 212 -529#2 -529#1 -529#0 351#3 351#4 -350 -105 -519#3 -519#2 -519#1 -519#0 -582#10 -582#9 -582#8 -582#7 -582#6 -582#5 -582#4 -582#3 -582#2 -582#1 618#0 618#1 -691#5 -691#4 -691#3 -691#2 -691#0 726#0 726#1 726#2 857#2 857#3 736 879#1 721#0 721#1 721#2 700#0 700#1 -282#2"/>
    </vehicle>
    <vehicle id="evehicle_1_88" type="evehicle" depart="19434.00" departLane="best">
        <route edges="-162 -315 10 318 -812#1 -1404#0 315 162 316#0 316#1 201 211#3 211#4 202 205#3 -197 879#5 879#6 879#7 879#8 -741#1 -741#0 -1480#3 -1480#2 -1480#1 -1480#0 888#2 888#3 888#4 888#5 907#0 907#1 748#0 748#1 748#2"/>
    </vehicle>
    <vehicle id="evehicle_1_380" type="evehicle" depart="19525.00" departLane="best">
        <route edges="520#8 520#9 416#1 248#0 248#1 -567#0 -582#10 -582#9 -582#8 -582#7 -582#6 -582#5 -582#4 -582#3 -582#2 -582#1 618#0 618#1 -691#5 -691#4 -691#3 -691#2 -691#0 726#0 726#1 726#2 857#2 857#3 736 879#1 879#2 879#3 879#4 879#5 879#6 879#7 879#8 879#11 878#1 878#2 878#3 -733#3 -733#2 -733#1 -733#0 -692 777 779 778 -806 783 408"/>
    </vehicle>
    <vehicle id="evehicle_2_139" type="evehicle" depart="19551.00" departLane="best">
        <route edges="-1408#1 -1408#0 1300#2 1300#3 1300#4 -199#1 -199#0 -475 -133 -1297#1 476#0 476#1 95 1302#0 1302#1 1302#2 1302#3 1302#4 1302#5 1302#6 1302#7 1302#8 1302#9 1302#10 1302#11 1302#12 1302#13 1302#14 850#1 850#2 850#3 -1327#1 -1327#0 563#0 563#1 563#2 563#3 563#4 563#5 1334#0 1334#1 1334#2 595 594 447 561#0 561#1 561#2 1324#0 1324#1 1324#2 1324#3 1324#4 932#0 932#1"/>
    </vehicle>
    <vehicle id="evehicle_3_304" type="evehicle" depart="19598.00" departLane="best">
        <route edges="1385 1387#1 1386#1 926#0 926#1 117 1259 1578 223#0 223#1 223#2 223#3 223#4 223#5 223#6 223#7 223#8 223#9 223#10 295#1 295#2 818#0 818#1 908 730#0 730#1 730#2 730#3 730#4 730#5 730#6 730#7 730#8 730#9 730#10 730#11 675 112 701#0 735"/>
    </vehicle>
    <vehicle id="evehicle_1_307" type="evehicle" depart="19648.00" departLane="best">
        <route edges="-110 858#0 858#1 858#2 455 -683#2 -683#1 -683#0 -617#0 111 862#0 709 701#2 888#0 888#1 1480#0 1480#1 1480#2 -712#1"/>
    </vehicle>
    <vehicle id="evehicle_1_399" type="evehicle" depart="19653.00" departLane="best">
        <route edges="-215 -277 -693 280 732#0 732#1 732#2 732#3 732#4 732#5 857#0 857#1 -726#2 -726#1 -726#0 691#0 -276 580 -691#2 -691#0 726#0 726#1"/>
    </vehicle>
    <vehicle id="evehicle_3_411" type="evehicle" depart="19693.00" departLane="best">
        <route edges="290 1578 223#0 223#1 223#2 223#3 223#4 223#5 223#6 223#7 223#8 -927#3 -927#2 -927#1 -927#0 816#2 193 -787#5 -787#4 -787#3 -787#2 -787#1 -787#0 1484#3 743#0 743#1 888#1 1480#0 1480#1 1480#2 -712#1"/>
    </vehicle>
    <vehicle id="evehicle_3_370" type="evehicle" depart="19739.00" departLane="best">
        <route edges="974 1380#2 1379#1 1379#2 1379#3 1379#4 1379#5 1379#6 1379#7 1361#1 650#0 -652#2 -652#1 -652#0 1319#0 1319#1 1494#0 1494#1 1248#0 1248#1 1248#2 1248#3 1248#4 1248#5 1248#6 1248#7 1248#8 1248#9 1248#10 1248#11 1248#12 -1256#7 -1256#6 -1256#5 -1256#4 -1256#3 -1256#2 -1256#1 -1256#0 -1372#0 -1369#3 -1369#2 -1369#1 1371 728#1"/>
    </vehicle>
    <vehicle id="evehicle_1_341" type="evehicle" depart="19753.00" departLane="best">
        <route edges="701#1 701#2 888#0 -743#1 -743#0 864#0 864#1 864#2 730#11 675 112 701#0 735 863#2 116 617#0 617#1 617#2 617#3 617#4 617#5 619 620 582#1 582#2 582#3 582#4 582#5 582#6 582#7 582#8 582#9 582#10 582#11 519#1 519#2 519#3 105 350 351#1 351#2 351#3 351#4 -350 -105 -519#3"/>
    </vehicle>
    <vehicle id="evehicle_2_236" type="evehicle" depart="19777.00" departLane="best">
        <route edges="-636#2 -636#1 -636#0 -1351#3 1338#0 1338#1 1338#2 1338#3 1338#4 1338#5 1338#6 1338#7 1338#8 1338#9 -1252#2 -1252#1 -1252#0 -1343#1 -1343#0 1341#14 1341#15 1341#16 918 920 622#0 622#1 622#2 622#3 617#3 617#4 617#5 619 620 572#0 572#1 572#2 -593#5 -593#4 -593#3 -593#2 -593#1 -593#0 586 569#1 569#2 439#0 439#2 439#4 439#5 439#6 439#7 439#8 439#9 360#3 360#4 360#5 244#0 -354#2"/>
    </vehicle>
    <vehicle id="evehicle_1_306" type="evehicle" depart="19817.00" departLane="best">
        <route edges="360#4 360#5 360#0 360#1 440#0 440#1 440#2 440#3 440#4 440#6 440#8 569#4 585#3 585#4 174 -182 -677 -183 -716 -184 -710 185 281 -81 362 204 205#2 -202 211#1 211#2 211#3 17 15#0 16 887 -162 -315 10 318 -812#1 -1404#0 315 162"/>
    </vehicle>
    <vehicle id="evehicle_2_479" type="evehicle" depart="19841.00" departLane="best">
        <route edges="-520#4 -520#3 -520#2 -531 524#1 -520#0 351#4 351#1 -494#4 -494#3 -494#2 -502#2 -502#1 -501 -176 506 -104 -860#4 -860#3 -860#2 -860#1 -860#0"/>
    </vehicle>
    <vehicle id="evehicle_1_68" type="evehicle" depart="19850.00" departLane="best">
        <route edges="730#11 675 112 701#0 701#1 701#2 888#0 888#1 1480#0 1480#1 1480#2 1480#3 741#0 741#1 879#11 878#1 878#2 878#3 -733#3 -733#2 -733#1 -733#0 -692 679 -688 -689 690 715 719 -722 -704 -785 -780"/>
    </vehicle>
    <vehicle id="evehicle_2_411" type="evehicle" depart="19973.00" departLane="best">
        <route edges="-617#1 -617#0 111 862#0 709 701#2 888#0 888#1 1480#0 1480#1 1480#2 1480#3 741#0 741#1 879#11 878#1 878#2 -737#2 -737#0 15#6 15#7 15#0 15#1 15#2 -773 191 -815#2 -815#1 -815#0 1492 895#2 895#3 895#4 895#1 -1492 815#0 815#1"/>
    </vehicle>
    <vehicle id="evehicle_2_510" type="evehicle" depart="20013.00" departLane="best">
        <route edges="351#1 -494#4 -494#3 -494#2 -494#1 -494#0 488 100 239#1 103 97 -1306#2 -1306#1 -1306#0 99 -490#1 1303#0 1303#1 1303#2 98 355#0 355#1 356 244#2 357"/>
    </vehicle>
    <vehicle id="evehicle_2_341" type="evehicle" depart="20094.00" departLane="best">
        <route edges="1295#1 1247#2 1247#3 1247#4 1300#1 1408#0 1408#1 1408#2 1408#3 1408#4 1408#5 1408#6 1408#7 497#1 243 494#0 494#1 494#2 494#3 494#4 351#2 351#3 351#4 -350 -105 -519#3 -519#2 -519#1 -519#0 -582#10 -582#9 -582#8 -582#7 -582#6 -582#5 -582#4 630#1 630#2 630#3 -617#5 -617#4 -617#3 -617#2 -617#1 -617#0 111 862#0 862#1 -730#11 -864#2 -864#1 -864#0 743#0 743#1 -888#0"/>
    </vehicle>
    <vehicle id="evehicle_3_50" type="evehicle" depart="20178.00" departLane="best">
        <route edges="-1266 -125 -1271 -128 -1269#1 -1269#0 911#1 456 -913 -1422 -1285#2 -1282#2 -1282#1 -1282#0 -1287#1 -1287#0 851#3 851#0 -468#6 -468#5 -468#3 -468#2 -468#1 -468#0 1300#1 1408#0 1408#1 1408#2 1408#3 1408#4 1408#5 1408#6 1408#7 497#1 243 494#0 494#1 494#2 494#3 494#4 351#2 351#3 351#4 -350 -105 -519#3 -519#2 -519#1 -519#0 -582#10 -582#9 -582#8 -582#7 -582#6 -582#5 -582#4 -582#3 -582#2 -582#1 618#0 618#1 -691#5 -691#4 -691#3 -691#2 -691#0 726#0 726#1 726#2 857#2 857#3 736 879#1 879#2 879#3 879#4 879#5 879#6 879#7 879#8 879#11 878#1 878#2 878#3 -733#3 -733#2 -733#1 -733#0 -692 679 -688 -689 690 -676 -679 692 733#0 733#1 733#2 733#3"/>
    </vehicle>
    <vehicle id="evehicle_1_364" type="evehicle" depart="20362.00" departLane="best">
        <route edges="853 722 -719 -715 -690 689 688 -679 692 733#0 733#1 733#2 733#3 878#4 878#0 878#1 878#2 -737#2 -737#0 15#6 15#7 -17 211#4 211#1 211#2 -201 173 435 223#8 -927#3 -927#2 -927#1 -927#0"/>
    </vehicle>
    <vehicle id="evehicle_3_364" type="evehicle" depart="20397.00" departLane="best">
        <route edges="-1322#4 -1322#3 -1322#2 -1322#1 -1322#0 -310#2 -310#1 -310#0 309 341#1 -1363#3 -1363#2 -1363#1 -1363#0 1379#6 1379#7 1361#1 650#0 -652#2 -652#1 -652#0 1319#0 1319#1 1494#0 1494#1 1494#2 1320 1315#1 1315#2 -542#1 -542#0 -1312#5 -1312#4 -1312#3 -1312#2 -1312#1 -1312#0 137 1314 -1311#0 -138 -1313#1 -1313#0 -139 -1340#5 -1250#5 -1250#4 -1252#11 -1252#10 -1252#9 -1252#8 -1252#7 -1252#6 -1252#5 -1252#4 -1252#2 -1252#1 -1252#0 -1343#1 -1343#0 1341#14 1341#15 1341#16 918 920 622#0 622#1 622#2 622#3 617#3 617#4 617#5 619 620 582#1 582#2 582#3"/>
    </vehicle>
    <vehicle id="evehicle_1_289" type="evehicle" depart="20447.00" departLane="best">
        <route edges="187#1 680 -319#0 -705#0 371 188 1577 1576 791#4 791#5 791#0 348 -292#2 -292#1 -292#0 790#2 293#0 293#1 -293#4 291"/>
    </vehicle>
    <vehicle id="evehicle_1_183" type="evehicle" depart="20451.00" departLane="best">
        <route edges="726#2 857#2 857#3 736 879#1 879#2 879#3 879#4 197 205#0 205#1 205#2 -202 211#1 210"/>
    </vehicle>
    <vehicle id="evehicle_2_218" type="evehicle" depart="20483.00" departLane="best">
        <route edges="1390#1 1390#2 1390#3 1390#4 1390#5 -1404#11 -1404#10 -1404#9 -1404#8 -1404#7 -1404#6 -1404#5 -1404#3 -1404#2 -1404#1 -1404#0 315 162 316#0 316#1 201 211#3 211#4 202 205#3 205#0 163 320 81 -281 -185 710 184 716 183 677 182 179 591 569#1 569#2 569#3 569#4 585#3 1481 593#0 593#1"/>
    </vehicle>
    <vehicle id="evehicle_2_19" type="evehicle" depart="20519.00" departLane="best">
        <route edges="-825#7 -825#6 -825#5 -825#3 -825#2 -825#1 -825#0 1361#1 650#0 -652#2 -652#1 -652#0 1319#0 1319#1 1494#0 1494#1 1494#2 1320 1315#1 1315#2 -542#1 -542#0 -1312#5 -1312#4 -1312#3 -1312#2 -1312#1 -1312#0 137 1314 -1311#0 -138 -1313#1 -1313#0 -139 -1340#5 -1250#5 -1250#4 -1250#3 -1250#2 -1250#1 -1250#0 850#3 -1327#1 -1327#0 563#0 563#1 563#2 563#3 563#4 563#5 1334#0 1334#1 1334#2 595 594 447 561#0 562#0 562#1"/>
    </vehicle>
    <vehicle id="evehicle_1_34" type="evehicle" depart="20541.00" departLane="best">
        <route edges="193 -787#5 -787#4 -787#3 -787#2 -787#1 -787#0 1484#3 864#0 864#1 864#2 730#11 675 112 701#0 735 863#2 116 617#0 617#1 617#2 617#3 617#4 617#5 619 620 582#1 582#2 582#3 582#4 582#5 582#6 582#7 582#8 582#9 582#10 582#11 519#1 519#2 519#3 105 350 351#1 -494#4 -494#3 -494#2 242 494#1"/>
    </vehicle>
    <vehicle id="evehicle_2_118" type="evehicle" depart="20549.00" departLane="best">
        <route edges="932#1 563#1 563#2 563#3 563#4 563#5 1334#0 1334#1 1334#2 595 630#2 630#3 -617#5 -617#4 -617#3 -617#2 -617#1 -617#0 111 862#0 709 701#2 888#0 888#1 1480#0 1480#1 1480#2 1480#3 741#0 741#1 879#11 878#1 878#2 -737#2 -737#0 15#6 15#7 15#0 15#1"/>
    </vehicle>
    <vehicle id="evehicle_2_7" type="evehicle" depart="20559.00" departLane="best">
        <route edges="1247#1 1247#2 1247#3 1247#4 1300#1 1408#0 1408#1 1408#2 1408#3 1408#4 1408#5 1408#6 1408#7 497#1 243 494#0 494#1 494#2 494#3 494#4 351#2 351#3 351#4 -350 -105 -519#3 -519#2 -519#1 -519#0 -582#10 -582#9 -582#8 -582#7 -582#6 -582#5 -582#4 -582#3 -582#2 -582#1 618#0 618#1 -691#5 -691#4 -691#3 -691#2 -691#0 726#0 726#1 726#2 857#2 857#3 736 879#1 879#2 879#3 879#4 197 205#0 205#1 205#2 -202 211#1 210"/>
    </vehicle>
    <vehicle id="evehicle_3_106" type="evehicle" depart="20586.00" departLane="best">
        <route edges="-976#1 974 1380#2 1379#1 1379#2 1379#3 1379#4 1379#5 1379#6 1379#7 1361#1 650#0 -652#2 -652#1 -652#0 1319#0 1319#1 1494#0 1494#1 1494#2 1320 1315#1 1315#2 -542#1 -542#0 -1312#5 -1312#4 -1312#3 -1312#2 -1312#1 -1312#0 137 1314 -1311#0 -138 -1313#1 -1313#0 -139 -1340#5 -1250#5 -1250#4 -1252#11 -1252#10 -1252#9 -1252#8 -1252#7 -1252#6 -1252#5 -1252#4 -1252#2 -1252#1 -1252#0 1343#2"/>
    </vehicle>
    <vehicle id="evehicle_2_220" type="evehicle" depart="20605.00" departLane="best">
        <route edges="-315 10 318 -812#1 -1404#0 315 162 316#0 316#1 201 211#3 211#4 202 205#3 -197 -747#2 -747#1 -747#0 732#4 732#5 857#0 857#1 -726#2 -726#1 -726#0 691#0 -588#2 -588#1 -564#0 -593#5 583#0 583#1 -579#6 -579#5 -579#4"/>
    </vehicle>
    <vehicle id="evehicle_2_402" type="evehicle" depart="20638.00" departLane="best">
        <route edges="1302#3 1302#4 1302#5 1302#6 1302#7 1302#8 1302#9 1302#10 1302#11 1302#12 1302#13 1302#14 850#1 850#2 850#3 -1327#1 -1327#0 563#0 563#1 563#2 563#3 563#4 563#5 1334#0 1334#1 1334#2 595 630#2 630#3 619 620 618#0 618#1 -691#5 -691#4 -691#3 -691#2 -691#0 -686"/>
    </vehicle>
    <vehicle id="evehicle_2_240" type="evehicle" depart="20691.00" departLane="best">
        <route edges="833#0 -838#0 -1396#0 223#4 223#5 223#6 223#7 223#8 -927#3 -927#2 -927#1 -927#0 816#2 193 -787#5 -787#4 -787#3 -787#2 -787#1 -787#0 1484#3 864#0 864#1"/>
    </vehicle>
    <vehicle id="evehicle_2_254" type="evehicle" depart="20724.00" departLane="best">
        <route edges="-828#1 -828#0 811#1 -790#0 903 902#3 -817#1 -804#2 -804#1 -804#0 815#0 815#1 815#2 -191 773 15#3 15#4 15#5 737#0 737#2 878#3 878#4 695 734#0 734#1 734#2 734#3 734#4"/>
    </vehicle>
    <vehicle id="evehicle_3_5" type="evehicle" depart="20729.00" departLane="best">
        <route edges="-1421 -1264 -1269#0 911#1 456 -913 -1422 -1285#2 -1282#2 -1282#1 -1282#0 -1287#1 -1287#0 851#3 851#0 -468#6 -468#5 -468#3 -468#2 -468#1 -468#0 1300#1 1408#0 1408#1 1408#2 1408#3 1408#4 1408#5 1408#6 1408#7 497#1 243 494#0 494#1 494#2 494#3 494#4 351#2 351#3 351#4 -350 -105 -519#3 -519#2 -519#1 -519#0 -582#10 -582#9 -582#8 -582#7 -582#6 -582#5 -582#4 630#1 630#2 630#3 -617#5 -617#4 -617#3 -617#2 -617#1 -617#0 111 862#0 862#1 -730#11 -864#2 -864#1 -864#0 1484#1 1484#2 787#0 787#1 787#2 787#3 787#4 787#5 -193 -816#2 927#0"/>
    </vehicle>
    <vehicle id="evehicle_1_162" type="evehicle" depart="20741.00" departLane="best">
        <route edges="-888#0 863#0 863#1 863#2 116 111 862#0 709 701#2 888#0 888#1 1480#0 1480#1 1480#2 1480#3 741#0 741#1 879#11 878#1 878#2 878#3 878#4 695 734#0 734#1 734#2 734#3 734#4 285 371 188 1577 1576 791#4 791#5 791#0 791#1 792#0 792#1"/>
    </vehicle>
    <vehicle id="evehicle_1_311" type="evehicle" depart="20761.00" departLane="best">
        <route edges="1333#2 1333#3 1334#0 1334#1 1334#2 595 630#2 630#3 619 620 572#0 572#1 572#2 -593#5 -593#4 -593#3 -593#2 -593#1 -593#0 586 569#1 569#2 439#0 439#2 439#4 439#5 439#6 439#7 439#8 439#9 360#3 360#4 360#5 244#0 244#2"/>
    </vehicle>
    <vehicle id="evehicle_3_440" type="evehicle" depart="20815.00" departLane="best">
        <route edges="-1264 -1269#0 911#1 456 -913 -1422 -1285#2 -1282#2 -1282#1 -1282#0 -1287#1 -1287#0 851#3 851#0 -468#6 -468#5 -468#3 -468#2 -468#1 -468#0 1300#1 1408#0 1408#1 1408#2 1408#3 1408#4 1408#5 1408#6 1408#7 497#1 243 494#0 494#1 494#2 494#3 494#4 351#2 351#3 351#4 -350 -105 -519#3 -519#2 -519#1 -519#0 -582#10 -582#9 -582#8 -582#7 -582#6 -582#5 -582#4 630#1 630#2 630#3 -617#5 -617#4 -617#3 -622#3 -622#2 -622#1 -622#0 -920 -918 -1341#16 -1341#15 -1341#14 1343#0 598#1"/>
    </vehicle>
    <vehicle id="evehicle_2_285" type="evehicle" depart="20836.00" departLane="best">
        <route edges="-296 -10 315 162 316#0 316#1 201 211#3 211#4 202 205#3 -197 -747#2 -747#1 -747#0 732#4 732#5 857#0 857#1 -726#2 -726#1 -726#0 691#0 691#2 691#3 691#4 691#5 -618#1 -618#0 582#1 582#2 582#3 582#4 582#5 582#6 582#7 582#8 582#9 582#10 582#11 519#1 519#2 519#3 105 350 351#1 351#2 529#0 529#1"/>
    </vehicle>
    <vehicle id="evehicle_1_415" type="evehicle" depart="20852.00" departLane="best">
        <route edges="112 701#0 701#1 701#2 888#0 888#1 888#2 888#3 888#4 888#5 907#0 907#1 748#0 -708#1"/>
    </vehicle>
    <vehicle id="evehicle_2_359" type="evehicle" depart="20852.00" departLane="best">
        <route edges="308 436 221#1 180 771 85 441 290 1578 223#0 223#1 223#2 223#3 223#4 223#5 223#6 223#7 223#8 -927#3 -927#2 -927#1 -927#0 -816#1 -816#0 856#0 856#1 856#2 316#1 201 211#3 211#4 202 205#3 205#0 163 320 81 -281 -185 710 184 716 183 677 182"/>
    </vehicle>
    <vehicle id="evehicle_1_60" type="evehicle" depart="20859.00" departLane="best">
        <route edges="862#0 709 701#2 888#0 888#1 1480#0 1480#1 1480#2 1480#3 741#0 741#1 879#11 878#1 878#2 878#3 -733#3 -733#2 -733#1 -733#0 -692 679 -688 -689 690 715 719 -782 -866"/>
    </vehicle>
    <vehicle id="evehicle_2_562" type="evehicle" depart="20894.00" departLane="best">
        <route edges="899#0 899#1 1355#10 1355#11 -825#5 -825#3 -825#2 -825#1 -825#0 1361#1 650#0 -652#2 -652#1 -652#0 1319#0 1319#1 1494#0 1494#1 1494#2 1320 1315#1 1315#2 -542#1 -542#0 -1312#5 -1312#4 -1312#3 -1312#2 -1312#1 -1312#0 137 1314 -1311#0 -138 -1313#1 -1313#0 -139 -1340#5 -1250#5 -1250#4 -1252#11 -1252#10 -1252#9 -1252#8 -1252#7 -1252#6 -1252#5 -1252#4 -1252#2 -1252#1 -1252#0 -1343#1 -1343#0 1341#14 1341#15 1341#16 918 920 919 625#1 609#0 609#1 -394#5 -394#3 -394#2"/>
    </vehicle>
    <vehicle id="evehicle_2_23" type="evehicle" depart="20900.00" departLane="best">
        <route edges="-633#2 -633#1 -633#0 1248#7 1248#8 1248#9 1248#10 1248#11 1248#12 -1256#7 -1256#6 -1256#5 -1256#4 -1256#3 -1256#2 -1256#1 -1256#0 -1372#0 -1369#3 -1369#2 -1369#1 1371 728#1 728#2 728#3 728#4 728#5 730#8 730#9 730#10 730#11 675 112 701#0 735 863#2 116 617#0 683#0 683#1 683#2 683#3 632 580 -691#2 -588#2 -588#1 -564#0"/>
    </vehicle>
    <vehicle id="evehicle_3_307" type="evehicle" depart="20911.00" departLane="best">
        <route edges="1571#1 1573#1 883 290 1578 223#0 223#1 223#2 223#3 223#4 223#5 223#6 223#7 223#8 223#9 223#10 295#1 295#2 818#0 818#1 908 730#0 730#1 730#2 730#3 730#4 730#5 730#6 730#7 730#8 730#9 730#10 730#11 675 112 701#0 735 863#2 116 617#0 617#1 617#2 -622#3 -622#2 631"/>
    </vehicle>
    <vehicle id="evehicle_1_269" type="evehicle" depart="20941.00" departLane="best">
        <route edges="730#6 730#7 730#8 730#9 730#10 730#11 675 112 701#0 735 863#2 116 617#0 617#1 617#2 617#3 617#4 617#5 619 621#0 621#1 594 447 561#0 562#0 562#1 562#2 562#3 562#4 562#5 562#6 -416#1 -520#9 -520#8 -520#7 -855#4 -855#3 -855#2 -855#1 -855#0 884#0 352 353#0"/>
    </vehicle>
    <vehicle id="evehicle_2_65" type="evehicle" depart="20977.00" departLane="best">
        <route edges="562#2 562#3 562#4 562#5 1326#0 1326#1 1326#2 1326#3 1324#4 932#0 932#1 563#1 563#2 563#3 563#4 563#5 1334#0 1334#1 1334#2 595 630#2 630#3 -617#5 -617#4 -617#3 -617#2 -617#1 -617#0 111 862#0 709 701#2 888#0 888#1 1480#0 1480#1 1480#2 1480#3 741#0 741#1 879#11 878#1 878#2 878#3 878#4 695 734#0 734#1 734#2 734#3 734#4 285 371 188 1577 1576 791#4 791#5 791#0 791#1 791#2 791#3"/>
    </vehicle>
    <vehicle id="evehicle_2_187" type="evehicle" depart="21044.00" departLane="best">
        <route edges="-1315#4 -1315#3 -542#1 -542#0 -1312#5 -1312#4 -1312#3 -1312#2 -1312#1 -1312#0 137 1314 -1311#0 -138 -1313#1 -1313#0 -139 -1340#5 -1250#5 -1250#4 -1250#3 -1250#2 -1250#1 -1250#0 850#3 -1327#1 -1327#0 563#0 563#1 563#2 563#3 563#4 563#5 1334#0 1334#1 1334#2 859"/>
    </vehicle>
    <vehicle id="evehicle_2_289" type="evehicle" depart="21047.00" departLane="best">
        <route edges="-829#6 -829#5 -829#4 -829#3 -829#2 -829#1 -829#0 930#0 930#1 829#0 829#1 829#2 829#3 829#4 829#5 829#6 829#7 829#8 902#1 902#3 -817#1 -804#2 -1490 207"/>
    </vehicle>
    <vehicle id="evehicle_2_543" type="evehicle" depart="21047.00" departLane="best">
        <route edges="-1407#8 -1407#7 -1407#6 -1407#5 -1407#4 -1407#3 -1407#2 -1407#1 -1407#0 -1404#26 -1404#25 -1404#24 -1404#23 -1404#21 -1404#20 -1404#19 -1404#18 -1404#17 -1404#16 -1404#13 -1404#12 -1404#11 -1404#10 -1404#9 -1404#8 -1404#7 -1404#6 -1404#5 -1404#3 -1404#2 -1404#1 -1404#0 315 162 316#0 316#1 201 211#3 211#4 202 205#3 -197 879#5 879#6 879#7 879#8 -741#1 -741#0 -1480#3 -1480#2 -1480#1 -1480#0 -888#1 -888#0 863#0 863#1 863#2 116 617#0 617#1 617#2 -622#3 -622#2 631 627#0 628 612 -601#2 -601#1 -609#2"/>
    </vehicle>
    <vehicle id="evehicle_1_144" type="evehicle" depart="21049.00" departLane="best">
        <route edges="787#1 787#2 787#3 -748#6 -748#5 -748#4 -748#3 -748#2 -748#1 -748#0 -907#1 -907#0 -888#5 -888#4 -888#3 -888#2 -888#1 -888#0 863#0 863#1 863#2 116 111 862#0 862#1 675 112 701#0"/>
    </vehicle>
    <vehicle id="evehicle_2_62" type="evehicle" depart="21060.00" departLane="best">
        <route edges="-803#1 -803#0 895#4 895#1 -1492 815#0 815#1 815#2 -191 773 15#3 15#4 15#5 15#6 15#7 -17 211#4 202 205#3 -197 -747#2 721#1 699#0"/>
    </vehicle>
    <vehicle id="evehicle_1_281" type="evehicle" depart="21065.00" departLane="best">
        <route edges="-1483 -1479#2 226 -703#2 -703#1 -703#0 857#1 857#2 857#3 736 879#1 879#2 879#3 879#4 879#5 879#6 879#7 879#8 879#11 878#1 878#2 878#3 -733#3 -733#2 -733#1 -733#0 -692 679 -688 -689 690 -676 -679 692 733#0"/>
    </vehicle>
    <vehicle id="evehicle_3_269" type="evehicle" depart="21127.00" departLane="best">
        <route edges="1384#5 1384#6 928#6 303 1573#1 883 290 1578 223#0 223#1 223#2 223#3 223#4 223#5 223#6 223#7 223#8 223#9 223#10 295#1 295#2 818#0 818#1 908 730#0 730#1 730#2 730#3 730#4 730#5 730#6 730#7 730#8 730#9 730#10 730#11 675 112 701#0 735 863#2 116 617#0 617#1 617#2 617#3 617#4 617#5 619 621#0 621#1 594 447 561#0 562#0 562#1 562#2 562#3 562#4 562#5 1326#0 1326#1"/>
    </vehicle>
    <vehicle id="evehicle_1_113" type="evehicle" depart="21164.00" departLane="best">
        <route edges="-730#10 723 864#2 730#11 675 112 701#0 735 863#2 116 617#0 683#0 683#1 683#2 683#3 632 580 -691#2 -588#2 -588#1 -564#0 -593#5 -593#4 -593#3 -593#2 -593#1 -593#0 586 569#1 569#2 439#0 439#2 439#4 439#5 439#6 439#7 440#1"/>
    </vehicle>
    <vehicle id="evehicle_3_147" type="evehicle" depart="21170.00" departLane="best">
        <route edges="-1264 -1269#0 911#1 456 -913 -1422 -1285#2 -1282#2 -1282#1 -1282#0 -1287#1 -1287#0 851#3 851#0 -468#6 -468#5 -468#3 -468#2 -468#1 -468#0 1300#1 1408#0 1408#1 1408#2 1408#3 1408#4 1408#5 1408#6 1408#7 497#1 243 494#0 494#1 494#2 494#3 494#4 351#2 351#3 351#4 -350 -105 -519#3 524#0"/>
    </vehicle>
    <vehicle id="evehicle_1_312" type="evehicle" depart="21233.00" departLane="best">
        <route edges="857#2 857#3 857#4 857#0 857#1 -726#2 -726#1 -726#0 691#0 691#2 691#3 691#4 691#5 -618#1 -618#0 582#1 582#2 582#3 630#1 594 447 561#0 562#0 562#1 562#2 562#3 562#4 562#5 562#6 -416#1 -520#9 -520#8 -520#7 -520#6 -520#5 -520#4"/>
    </vehicle>
    <vehicle id="evehicle_3_360" type="evehicle" depart="21263.00" departLane="best">
        <route edges="-763 1384#4 1384#5 1384#6 928#6 303 1573#1 883 290 1578 223#0 223#1 223#2 223#3 223#4 223#5 223#6 223#7 223#8 -927#3 -927#2 -927#1 -927#0 816#2 193 -787#5 -787#4 -748#6 -748#5 -748#4 739#0 739#1"/>
    </vehicle>
    <vehicle id="evehicle_2_553" type="evehicle" depart="21280.00" departLane="best">