<?xml version="1.0" encoding="UTF-8"?>

<!--
    Monaco SUMO Traffic (MoST) Scenario
    Copyright (C) 2018
    Lara CODECA

    This program is free software: you can redistribute it and/or modify
    it under the terms of the GNU General Public License as published by
    the Free Software Foundation, either version 3 of the License, or
    (at your option) any later version.

    This program is distributed in the hope that it will be useful,
    but WITHOUT ANY WARRANTY; without even the implied warranty of
    MERCHANTABILITY or FITNESS FOR A PARTICULAR PURPOSE.  See the
    GNU General Public License for more details.

    You should have received a copy of the GNU General Public License
    along with this program.  If not, see <http://www.gnu.org/licenses/>.
-->

<routes xmlns:xsi="http://www.w3.org/2001/XMLSchema-instance" xsi:noNamespaceSchemaLocation="http://sumo.dlr.de/xsd/routes_file.xsd"> 
    <vehicle id="commercial_1-GW1_211" type="commercial" depart="18019" departLane="best" arrivalPos="random">
        <route edges="152382#2 -152780#1 -152780#0 -152762#1 -152762#0 152956#7 152956#8 152956#10 152955#2 152955#3 -152817#2 -152817#1 -152817#0 152133#6 152133#7 152133#0 152134 152964 -152266 -152414 -152954 153472#1 153472#2 153472#3 153472#5 153472#6 153472#7 153472#8 153472#9 153472#10 153472#11 153472#12 153472#13 153472#14 153472#15 153472#16 153472#17 153472#18 153472#19 153472#20 153472#22 153472#23 153472#24 153472#25 153472#26 -152299 -153338 -152298 -153473#1 -153473#0 -152253 -152923 -152300 -153474"/>
    </vehicle>
    <vehicle id="commercial_GW1-1_6" type="commercial" depart="18024" departLane="best" arrivalPos="random">
        <route edges="153474 152300 152923 152253 153473#0 153473#1 152298 153338 152299 -153472#26 -153472#25 -153472#24 -153472#23 -153472#22 -153472#20 -153472#19 -153472#18 -153472#17 -153472#16 -153472#15 -153472#14 -153472#13 -153472#12 -153472#11 -153472#10 -153472#9 -153472#8 -153472#7 -153472#6 -153472#5 -153472#3 -153472#2 -153472#1 -153472#0 152414 152266 152415#0 152415#1 152304 152314#3 152314#4 152305 152308#3 -152301 -152827#2 -152827#1 -152827#0 152812#4 152812#5 152783#0 152783#1 152416"/>
    </vehicle>
    <vehicle id="commercial_GW1-1_107" type="commercial" depart="18042" departLane="best" arrivalPos="random">
        <route edges="153474 152300 152923 152253 153473#0 153473#1 152298 153338 152299 -153472#26 -153472#25 -153472#24 -153472#23 -153472#22 -153472#20 -153472#19 -153472#18 -153472#17 -153472#16 -153472#15 -153472#14 -153472#13 -153472#12 -153472#11 -153472#10 153004#0 153004#1 153004#2 153004#3 153004#4 153004#5 153004#6 153004#7 152398#2 152398#3 152895#0 152895#1 152895#2 -152866#4 -152866#3 -152866#2 -152866#1 -152866#0 153548#3 153548#0 152941#0 152941#1 152941#2 152810#11 152755 152226 152781#0 152781#1 152781#2 152163 152965#0 152965#1 152965#2"/>
    </vehicle>
    <vehicle id="commercial_1-2_127" type="commercial" depart="18055" departLane="best" arrivalPos="random">
        <route edges="152601#1 152601#2 152165 152219 152449 152450#1 152450#2 152450#3 152450#4 -152449 -152219 -152165 -152601#2 -152601#1 -152601#0 -152663#10 -152663#9 -152663#8 -152663#7 -152663#6 -152663#5 -152663#4 152710 152170#0 152170#1 -152697#5 -152697#4 -152697#3 -152702#3 -152702#2 -152702#1 -152702#0 -152995 -152993 -153409#16 -153409#15 -153409#14 153411#0 153411#1 153411#2 153411#3 153411#4 153411#5 -153405 -153398 -153412 -153404 -153399 153406#5"/>
    </vehicle>
    <vehicle id="commercial_GW2-1_161" type="commercial" depart="18067" departLane="best" arrivalPos="random">
        <route edges="153652 152279 -152551 -153353#2 -153350#2 -153350#1 -153350#0 -153355#1 -153355#0 -153319#4 -153319#3 -153319#2 -153319#1 -153319#0 -153359#3 152556 -152577#4 -152577#3 -152577#2 -152577#1 -152577#0 152341#1 -152575#1 -152575#0 -152216 -152583#3 -152583#2 -152583#1 -152583#0 152220 152166#0 152166#1 152603 152359#3 152359#0 152359#1 -152665#1 -152665#0 -152222 -152286 -152757 -152287 -152796 -152288 -152790 152289 152381 -152202 152457 152307 152308#2 152308#3 -152301 152956#5 152956#6 152956#7 152956#8 -153269#2 -153269#1 -153269#0 152130 152754"/>
    </vehicle>
    <vehicle id="commercial_GW1-1_257" type="commercial" depart="18087" departLane="best" arrivalPos="random">
        <route edges="153474 152300 152923 152253 153473#0 153473#1 152298 153338 152299 -153472#26 153475#0 153475#1 153475#2 153475#3 153475#5 153475#6 153475#7 153475#8 153475#9 153475#11 152326#1 152326#2 152326#3 152326#4 152326#5 152162 152164#0 152164#1 152395#1 152395#2 152395#3 -152887#1 -152887#0 152296 -152888#1 -152888#0 152832#0 152832#1 -152387"/>
    </vehicle>
    <vehicle id="commercial_1-1_292" type="commercial" depart="18095" departLane="best" arrivalPos="random">
        <route edges="153376#4 153376#5 152586#1 152586#2 152578#2 152578#3 152578#4 152450#2 152450#3 152450#4 -152449 -152219 -152165 -152601#2 -152601#1 -152601#0 -152663#10 -152663#9 -152663#8 -152663#7 -152663#6 -152663#5 -152663#4 -152663#3 -152663#2 -152663#1 152698#0 152698#1 -152771#5 -152771#4 -152771#3 -152771#2 -152771#0 152806#0 152806#1 152806#2 152816 152956#1 152801#0 152801#1 152801#2 -152762#1 -152762#0"/>
    </vehicle>
    <vehicle id="commercial_1-2_232" type="commercial" depart="18118" departLane="best" arrivalPos="random">
        <route edges="-152856 152772 152813#0 152813#1 152813#2 152813#3 152955#5 152775 152814#0 152814#1 152814#2 152814#3 152812#0 152812#1 152812#2 152812#3 152812#4 152812#5 -152806#2 -152806#1 -152800 152935#1 152935#2 152542 -152763#2 -152776 -152702#3 -152702#2 152711 152707#0 152707#1 152707#2"/>
    </vehicle>
    <vehicle id="commercial_1-GW2_47" type="commercial" depart="18118" departLane="best" arrivalPos="random">
        <route edges="152291 -152418#0 -152785#0 152383 152812#1 152812#2 152812#3 152827#0 152827#1 152827#2 152301 152308#0 152308#1 152308#2 -152305 152314#1 152314#2 -152304 152277 152526 -152326#5 -152326#4 -152326#3 -152326#2 -152326#1 -152326#0 153633 152401 -153003#6 -153452#6 -153452#5 -153452#4 -153452#3 -153452#2 -153452#1 -153452#0 -153447#4 -153447#3 -153447#2 -153447#1 -153447#0 -153448#1 -153448#0"/>
    </vehicle>
    <vehicle id="commercial_3-1_103" type="commercial" depart="18120" departLane="best" arrivalPos="12.5">
        <route edges="152899 153473#1 152298 153338 152299 -153472#26 -153472#25 -153472#24 -153472#23 -153472#22 -153472#20 -153472#19 -153472#18 -153472#17 -153472#16 -153472#15 -153472#14 -153472#13 -153472#12 -153472#11 -153472#10 -153472#9 -153472#8 -153472#7 -153472#6 -153472#5 -153472#3 -153472#2 -153472#1 152891#1 152891#2 152978#0 152978#1 152978#2 152978#3 -152896#1 -152883#2 -152883#1 -152883#0 152894#0 -153555#2"/>
        <stop parkingArea="1144" until="45084"/>
    </vehicle>
    <vehicle id="commercial_1-GW1_340" type="commercial" depart="18132" departLane="best" arrivalPos="random">
        <route edges="153376#5 152586#1 152586#2 152578#2 152578#3 152578#4 152450#2 152450#3 152602#0 152602#1 -152613 -152606 152598 152603 152359#3 152359#0 152359#1 -152665#1 -152665#0 -152222 -152286 -152757 -152287 -152796 -152288 -152790 152289 152381 -152202 152457 152307 152308#2 -152305 152314#1 152314#2 152314#3 152135 152133#0 152134 152964 -152266 -152414 -152954 153472#1 153472#2 153472#3 153472#5 153472#6 153472#7 153472#8 153472#9 153472#10 153472#11 153472#12 153472#13 153472#14 153472#15 153472#16 153472#17 153472#18 153472#19 153472#20 153472#22 153472#23 153472#24 153472#25 153472#26 -152299 -153338 -152298 -153473#1 -153473#0 -152253 -152923 -152300 -153474"/>
    </vehicle>
    <vehicle id="commercial_GW1-1_79" type="commercial" depart="18140" departLane="best" arrivalPos="random">
        <route edges="153474 152300 152923 152253 153473#0 153473#1 152298 153338 152299 -153472#26 -153472#25 -153472#24 -153472#23 -153472#22 -153472#20 -153472#19 -153472#18 -153472#17 -153472#16 -153472#15 -153472#14 -153472#13 -153472#12 -153472#11 -153472#10 -153472#9 -153472#8 -153472#7 -153472#6 -153472#5 -153472#3 -153472#2 -153472#1 -153472#0 152414 152266 152415#0 152415#1 152304 152314#3 152314#4 152305 152308#3 -152301 -152827#2 -152827#1 -152827#0 152812#4 152812#5 -152806#2 -152806#1 -152806#0 152771#0 -152377 -152712 -152935#4"/>
    </vehicle>
    <vehicle id="commercial_GW1-1_96" type="commercial" depart="18143" departLane="best" arrivalPos="random">
        <route edges="153474 152300 152923 152253 153473#0 153473#1 152298 153338 152299 -153472#26 -153472#25 -153472#24 -153472#23 -153472#22 -153472#20 -153472#19 -153472#18 -153472#17 -153472#16 -153472#15 -153472#14 -153472#13 -153472#12 -153472#11 -153472#10 -153472#9 -153472#8 -153472#7 -153472#6 -153472#5 -153472#3 -153472#2 -153472#1 -153472#0 152414 152266 152415#0 152415#1 152304 152314#3 152314#4 152305 152308#3 -152301 -152827#2 -152827#1 -152827#0 152812#4 152812#5 -152806#2 -152806#1 -152800 152935#1 152935#2 152542 -152763#2 -152776 -152697#2 -152697#1"/>
    </vehicle>
    <vehicle id="commercial_1-1_72" type="commercial" depart="18157" departLane="best" arrivalPos="random">
        <route edges="152604 -152602#7 -152602#6 -152602#5 -152602#4 -152602#3 -152602#2 -152613 -152606 -152601#2 -152601#1 -152601#0 -152663#10 -152663#9 -152663#8 -152663#7 -152663#6 -152663#5 -152663#4 152710 152170#0 152170#1 -152697#5 -152697#4 -152697#3 -152697#2 -152697#1 -152697#0 152225 152939#0 152789 152781#2 152163 152965#0 152965#1 152965#2 152965#3 152983#0 152983#1 152828#0 -152788#1 -152788#0"/>
    </vehicle>
    <vehicle id="commercial_1-GW1_143" type="commercial" depart="18170" departLane="best" arrivalPos="random">
        <route edges="-152703#0 152702#2 152702#3 -152697#2 -152697#1 -152697#0 152225 152939#0 152939#1 -152810#11 -152810#10 -152810#9 -152810#8 -152810#7 -152810#6 -152810#5 -152810#4 -152810#3 -152810#2 -152810#1 -152810#0 152985 -152897#1 -152897#0 152395#3 152395#0 -152164#1 -152164#0 -152162 -152326#5 -152326#4 -152326#3 -152326#2 -152326#1 -152326#0 153633 153630#1 153632#1 152960 -152532 -152206 -152851 -152284 152321#0 152321#1 152198 152323 152201 152325 152319#1"/>
    </vehicle>
    <vehicle id="commercial_1-1_40" type="commercial" depart="18191" departLane="best" arrivalPos="random">
        <route edges="-152935#1 -152935#0 -152806#0 152771#0 -152377 -152712 -152763#3 -152763#2 -152763#1 -152763#0 -152697#0 152225 152939#0 152939#1 -152810#11 -152810#10 -152810#9 -152810#8 -152808#5 -152808#4 -152808#3 -152808#2 -152808#1"/>
    </vehicle>
    <vehicle id="commercial_1-2_29" type="commercial" depart="18196" departLane="best" arrivalPos="random">
        <route edges="153394#1 153394#2 153394#3 153392#4 153007#0 153007#1 152645#1 152645#2 152645#3 152645#4 152645#5 153402#0 153402#1 153402#2 152936 152680 152170#1 -152697#5 -152697#4 -152697#3 -152697#2 -152697#1 -152697#0 152225 152939#0 152939#1 -152810#11 -152810#10 -152810#9 -152810#8 -152808#5 -152808#4 -152808#3 -152808#2 -152808#1 -152808#0 153437#1 153437#2"/>
    </vehicle>
    <vehicle id="commercial_1-1_9" type="commercial" depart="18203" departLane="best" arrivalPos="random">
        <route edges="-152202 152457 152307 152308#2 152308#3 -152301 -152827#2 -152827#1 -152827#0 152812#4 152812#5 -152806#2 -152806#1 -152800 152935#1 152935#2 152542 -152763#2 -152763#1 -152763#0 -152697#0 152225 152939#0 152939#1 -152810#11"/>
    </vehicle>
    <vehicle id="commercial_1-3_187" type="commercial" depart="18211" departLane="best" arrivalPos="random">
        <route edges="-152866#3 -152866#2 -152866#1 -152866#0 153548#3 153548#0 153548#1 153548#2 152866#0 152866#1 152866#2 152866#3 152866#4 152866#5 -152895#1 -152895#0 152398#0 152398#1 -153004#7 -153004#6 -153004#5 -153004#4 -153004#3 -153004#2 -153004#1 -153004#0 153472#10 153472#11 153472#12 153472#13 153472#14 153472#15 153472#16 153472#17 153472#18 153472#19 153472#20 153472#22 153472#23 153472#24 153472#25 153472#26 -152299 -153338 -152298 -153473#1 -153473#0 -152253 -152923 -152300 -153474 153474 152300 152923"/>
    </vehicle>
    <vehicle id="commercial_GW1-1_95" type="commercial" depart="18211" departLane="best" arrivalPos="random">
        <route edges="153474 152300 152923 152253 153473#0 153473#1 152298 153338 152299 -153472#26 -153472#25 -153472#24 -153472#23 -153472#22 -153472#20 -153472#19 -153472#18 -153472#17 -153472#16 -153472#15 -153472#14 -153472#13 -153472#12 -153472#11 -153472#10 153004#0 153004#1 153004#2 153004#3 153004#4 153004#5 153004#6 153004#7 152398#2 152398#3 152895#0 152895#1 152895#2 -152866#4 -152866#3 -152866#2 -152866#1 -152866#0 153548#3 153548#0 152941#0 152941#1 152941#2 152810#11 152755 152226 152781#0 152781#1 152781#2 152163 152823#0"/>
    </vehicle>
    <vehicle id="commercial_2-1_369" type="commercial" depart="18214" departLane="best" arrivalPos="random">
        <route edges="-153019#2 152595 152348#2 -152535#0 152348#1 -152595 153019#2 153019#3 -153370#0 -152211 -152562#1 -152562#0 153365#1 152241 152561 152303 -153368#4 -153368#3 -153368#2 153476#0 153476#1 153476#2 153476#3 153476#4 153476#5 153476#6 153476#7 152581#1 152346 152578#0 152578#1 -152586#2 -152586#1 -152585 -152280 152590 -152937#3 -152937#2 -152937#1 -152937#0 152933#0 152933#1 152933#2 152933#3"/>
    </vehicle>
    <vehicle id="commercial_1-GW2_109" type="commercial" depart="18232" departLane="best" arrivalPos="random">
        <route edges="152212 153372 152217 -153476#7 -153476#6 -153476#5 -153476#4 -153476#3 -153476#2 -153476#1 -153476#0 -153368#1 -153368#0 152554#1 152554#2 152554#3 152554#5 152554#6 153355#0 153355#1 153350#0 153350#1 153350#2 153353#2 -152953 -152279 152550"/>
    </vehicle>
    <vehicle id="commercial_1-1_78" type="commercial" depart="18240" departLane="best" arrivalPos="random">
        <route edges="-152455#1 -152456 -152343#0 -152161#1 -152161#0 153543 152141 -152168 152574#1 -152214 153374#0 153374#1 153374#2 153372 152217 152581#1 152346 152578#0 152578#1 -152586#2 -152586#1 -152585 -152280 152590 -152937#3 -152937#2 -152937#1 -152937#0 152933#0 152933#1 152933#2 152933#3 152933#4"/>
    </vehicle>
    <vehicle id="commercial_GW2-1_226" type="commercial" depart="18248" departLane="best" arrivalPos="random">
        <route edges="153652 152279 -152551 -153353#2 -153350#2 -153350#1 -153350#0 -153355#1 -153355#0 -153319#4 -153319#3 -153319#2 -153319#1 -153319#0 -153361#4 -153361#3 -153361#1 -153361#0 152342#1 152217 152581#1 152346 152578#0 152578#1 -152586#2 -152586#1 -152585 -152280 152590 -152937#3 -152937#2 -152937#1 -152937#0 152961#0 152961#1 152315"/>
    </vehicle>
    <vehicle id="commercial_1-1_576" type="commercial" depart="18261" departLane="best" arrivalPos="random">
        <route edges="152230 152697#0 152697#1 152697#2 152776 -152763#1 -152763#0 -152697#0 152462#0 152462#1"/>
    </vehicle>
    <vehicle id="commercial_3-1_166" type="commercial" depart="18275" departLane="best" arrivalPos="random">
        <route edges="-153454#0 -153455#0 -152252 153456 -153456 152252 153455#0 153455#1 153454#1 153001#0 153001#1 152231 153334 153637 152326#0 152326#1 152326#2 152326#3 152326#4 152326#5 152162 152164#0 152164#1 152395#1 152395#2 152897#0 152897#1 152984 152810#0 152810#1 152810#2 152810#3 152810#4 152810#5 152810#6 152810#7 152810#8 152810#9 152810#10 152810#11 152755 152226 152781#0 152815 152940#2 152230 152697#0 152697#1 152697#2 152697#3 152697#4 152697#5 152699 152700 152663#1 152663#2 152663#3 152663#4 152663#5 152663#6 152663#7 152663#8 152663#9 152663#10 152663#11 152601#1 152601#2 152598 -152166#1 -152166#0 -152220 152583#0 152583#1 152609 -152609 -152583#1"/>
    </vehicle>
    <vehicle id="commercial_1-GW1_94" type="commercial" depart="18277" departLane="best" arrivalPos="random">
        <route edges="-152771#4 -152771#3 -152771#2 -152771#0 152806#0 152806#1 152806#2 152816 152956#1 152956#2 152956#3 152956#4 152301 152308#0 152308#1 152308#2 -152305 152314#1 152314#2 152314#3 152135 152133#0 152134 152964 -152266 -152414 -152954 153472#1 153472#2 153472#3 153472#5 153472#6 153472#7 153472#8 153472#9 153472#10 153472#11 153472#12 153472#13 153472#14 153472#15 153472#16 153472#17 153472#18 153472#19 153472#20 153472#22 153472#23 153472#24 153472#25 153472#26 -152299 -153338 -152298 -153473#1 -153473#0 -152253 -152923 -152300 -153474"/>
    </vehicle>
    <vehicle id="commercial_1-GW2_185" type="commercial" depart="18277" departLane="best" arrivalPos="random">
        <route edges="152788#1 -152828#0 -152983#1 -152983#0 -152965#3 -152965#2 -152965#1 -152965#0 -152163 152940#0 152940#1 152940#2 152230 152697#0 152697#1 152697#2 152697#3 152697#4 152697#5 152699 152700 152663#1 152663#2 152663#3 152663#4 152663#5 152663#6 152663#7 152663#8 152663#9 152663#10 152663#11 152601#1 152601#2 152165 152219 152449 152450#1 -152578#4 -152578#3 -152578#2 -152578#1 -152578#0 152572 152215 153361#0 153361#1 153361#3 153361#4 153319#0 153319#1 153319#2 153319#3 153319#4 153355#0 153355#1 153350#0 153350#1 153350#2 153353#2 -152953 -152279 152550"/>
    </vehicle>
    <vehicle id="commercial_1-GW1_137" type="commercial" depart="18281" departLane="best" arrivalPos="random">
        <route edges="-152965#1 -152965#0 152787 152792#0 152792#1 153545#2 152821#0 152821#1 152956#10 152955#2 152955#3 -152817#2 -152817#1 -152817#0 152133#6 152133#7 152133#0 152134 152964 -152266 -152414 -152954 153472#1 153472#2 153472#3 153472#5 153472#6 153472#7 153472#8 153472#9 153472#10 153472#11 153472#12 153472#13 153472#14 153472#15 153472#16 153472#17 153472#18 153472#19 153472#20 153472#22 153472#23 153472#24 153472#25 153472#26 -152299 -153338 -152298 -153473#1 -153473#0 -152253 -152923 -152300 -153474"/>
    </vehicle>
    <vehicle id="commercial_GW1-1_343" type="commercial" depart="18282" departLane="best" arrivalPos="random">
        <route edges="152521#0 152521#0-AddedOffRampEdge 152525 152276 152528 152200 152322 152199 152324#0 152324#1 152284 152851 152206 152532 152390 153637 152326#0 152326#1 152326#2 152326#3 152326#4 152326#5 152162 152164#0 152164#1 152395#1 152395#2 152897#0 152897#1 152316 152399 152534#0 152534#1 152133#2 152133#3 152133#4 152133#5 152817#0 152817#1 152817#2 152955#4 152955#5 152955#1 152955#2"/>
    </vehicle>
    <vehicle id="commercial_1-1_610" type="commercial" depart="18298" departLane="best" arrivalPos="random">
        <route edges="152601#1 152601#2 152165 152219 152449 152450#1 152450#2 152450#3 152450#4 -152449 -152219 -152165 -152601#2 -152601#1 -152601#0 -152663#10 -152663#9 -152663#8 -152663#7 -152663#6 -152663#5 -152663#4 152710 152170#0 152170#1 -152697#5 -152697#4 -152697#3 -152697#2 -152697#1 -152697#0 152225 152939#0 152789 152781#2 152163 152965#0 152965#1 152965#2 152965#3 152983#0 152983#1 152983#2 -152983#2 -152983#1 -152983#0 -152965#3 -152965#2 -152965#1 -152965#0 152787"/>
    </vehicle>
    <vehicle id="commercial_1-GW1_371" type="commercial" depart="18301" departLane="best" arrivalPos="random">
        <route edges="-152653#0 152698#0 152698#1 -152771#5 -152771#4 -152771#3 -152771#2 -152771#0 152806#0 152806#1 152806#2 152816 152956#1 152956#2 152956#3 152956#4 152301 152308#0 152308#1 152308#2 -152305 152314#1 152314#2 152314#3 152135 152133#0 152134 152964 -152266 -152414 -152954 153472#1 153472#2 153472#3 153472#5 153472#6 153472#7 153472#8 153472#9 153472#10 153472#11 153472#12 153472#13 153472#14 153472#15 153472#16 153472#17 153472#18 153472#19 153472#20 153472#22 153472#23 153472#24 153472#25 153472#26 -152299 -153338 -152298 -153473#1 -153473#0 -152253 -152923 -152300 -153474"/>
    </vehicle>
    <vehicle id="commercial_1-1_571" type="commercial" depart="18306" departLane="best" arrivalPos="33.56016137938613">
        <route edges="-152832#3 -152832#2 -152387 152832#3 152832#4 152832#5 152832#6 152810#3 152810#4 152810#5 152810#6 152810#7 152810#8 152797 152778 153548#2 152866#0 152866#1 152866#2 152866#3 152866#4 152866#5 -152895#1 -152895#0"/>
        <stop parkingArea="1139" until="45288"/>
    </vehicle>
    <vehicle id="commercial_3-1_40" type="commercial" depart="18307" departLane="best" arrivalPos="random">
        <route edges="152409#3 152248 153391 152249 -153432 153432 -152249 -153391 -152248 -152409#3 -152409#2 -152409#1 -152409#0 152408 152440#1 -153431#3 -153431#2 -153431#1 -153431#0 153447#6 153447#7 153429#1 152730#0 -152732#2 -152732#1 -152732#0 153387#0 153387#1 153388#1 153383#1 153383#2 -152624#1 -152624#0 -153380#1 -153380#0 -152173 -152172#2 -152172#1 -152172#0 -153379#0 -152246 -153381#1 -153381#0 -152247 -153408#5 -153325#5 -153325#4 -153327#11 -153327#10 -153327#9 -153327#8 -153327#7 -153327#6 -153327#5 -153327#4 -153327#2 -153327#1 -153327#0 -153411#1 -153411#0 153409#14 153409#15 153409#16 152993 152995 152994 152705#1 152689#0 152689#1"/>
    </vehicle>
    <vehicle id="commercial_1-GW1_15" type="commercial" depart="18308" departLane="best" arrivalPos="random">
        <route edges="152672#3 152672#4 -152672#4 -152672#3 -152672#2 -152672#1 -152672#0 152673#4 152673#5 152646#0 152668#1 152668#2 -152771#0 152806#0 152806#1 152806#2 152816 152956#1 152956#2 152956#3 152956#4 152301 152308#0 152308#1 152308#2 -152305 152314#1 152314#2 152314#3 152135 152133#0 152134 152964 -152266 -152414 -152954 153472#1 153472#2 153472#3 153472#5 153472#6 153472#7 153472#8 153472#9 153472#10 153472#11 153472#12 153472#13 153472#14 153472#15 153472#16 153472#17 153472#18 153472#19 153472#20 153472#22 153472#23 153472#24 153472#25 153472#26 -152299 -153338 -152298 -153473#1 -153473#0 -152253 -152923 -152300 -153474"/>
    </vehicle>
    <vehicle id="commercial_1-1_246" type="commercial" depart="18342" departLane="best" arrivalPos="random">
        <route edges="152756 -152770 152769 152768 -152759 152772 152813#0 152813#1 152813#2 152813#3 152955#5 152775 152814#0 152814#1 152814#2 152814#3 152812#0 152812#1 152812#2 152812#3 152812#4 152812#5 -152806#2 -152806#1 -152800 152935#1 152935#2 152542 -152763#2 -152776 -152697#2 -152697#1 152763#0"/>
    </vehicle>
    <vehicle id="commercial_1-1_500" type="commercial" depart="18349" departLane="best" arrivalPos="random">
        <route edges="-152163 152940#0 152940#1 152940#2 152230 152697#0 152763#0 152763#1 152763#2 -152542 -152935#2 -152935#1 -152935#0 152806#1 152806#2 152816 152956#1 152956#2 152956#3 152956#4 152301 152308#0 152308#1 152308#2 -152305 152314#1 152313 -152894#2 -152894#1 -152894#0 153556 152971#2 152971#3 152882#0 152962#0 152962#1 152454#1 152454#2 152394#0 152394#1 152394#2 152394#3 152854 -152394#4 -152394#3"/>
    </vehicle>
    <vehicle id="commercial_1-GW1_336" type="commercial" depart="18350" departLane="best" arrivalPos="random">
        <route edges="153555#1 153555#2 -152894#0 153556 152971#2 152896#0 152896#1 152978#4 152969 -152891#1 153472#1 153472#2 153472#3 153472#5 153472#6 153472#7 153472#8 153472#9 153472#10 153472#11 153472#12 153472#13 153472#14 153472#15 153472#16 153472#17 153472#18 153472#19 153472#20 153472#22 153472#23 153472#24 153472#25 153472#26 -152299 -153338 -152298 -153473#1 -153473#0 -152253 -152923 -152300 -153474"/>
    </vehicle>
    <vehicle id="commercial_2-1_384" type="commercial" depart="18362" departLane="best" arrivalPos="random">
        <route edges="-153475#7 -153475#6 -153475#5 -153475#3 -153475#2 -153475#1 -153475#0 -153472#25 -153472#24 -153472#23 -153472#22 -153472#20 -153472#19 -153472#18 -153472#17 -153472#16 -153472#15 -153472#14 -153472#13 -153472#12 -153472#11 -153472#10 -153472#9 -153472#8 -153472#7 -153472#6 -153472#5 -153472#3 -153472#2 -153472#1 -153472#0 152414 152266 152415#0 152415#1 152304 152314#3 152314#4 152305 152308#3 152308#0 152267 152419 152202 -152381 -152289 152790 152288 152796 152287 152757 152286 152283 152650#1 152650#2 152530#0 152530#2 152530#4 152530#5 152605 152610 152531#1 152531#2"/>
    </vehicle>
    <vehicle id="commercial_2-1_306" type="commercial" depart="18370" departLane="best" arrivalPos="random">
        <route edges="-153004#5 -153004#4 -153004#3 -153004#2 -153004#1 -153004#0 -153472#9 -153472#8 -153472#7 -153472#6 -153472#5 -153472#3 -153472#2 -153472#1 -153472#0 152414 152266 152415#0 152415#1 152304 152314#3 152314#4 152305 152308#3 152308#0 152267 152419 152202 -152381 -152289 152790 152288 152796 152287 152757 152286 152283 152650#1 152650#2 152530#0 152530#2 152530#4"/>
    </vehicle>
    <vehicle id="commercial_1-GW1_201" type="commercial" depart="18372" departLane="best" arrivalPos="random">
        <route edges="152882#1 152979 152978#3 152978#4 152969 -152891#1 153472#1 153472#2 153472#3 153472#5 153472#6 153472#7 153472#8 153472#9 153472#10 153472#11 153472#12 153472#13 153472#14 153472#15 153472#16 153472#17 153472#18 153472#19 153472#20 153472#22 153472#23 153472#24 153472#25 153472#26 -152299 -153338 -152298 -153473#1 -153473#0 -152253 -152923 -152300 -153474"/>
    </vehicle>
    <vehicle id="commercial_1-GW2_18" type="commercial" depart="18375" departLane="best" arrivalPos="random">
        <route edges="152964 152415#0 152415#1 152304 152314#3 152314#4 152305 152308#3 152308#0 152267 152419 152202 -152381 -152289 152790 152288 152796 152287 152757 152286 152282 152665#0 152665#1 152359#2 -152603 -152166#1 -152166#0 -152220 152583#0 152583#1 152583#2 152583#3 152216 152575#0 152575#1 152344 152341#0 152577#0 152577#1 152577#2 152577#3 152577#4 -152556 153359#3 153319#0 153319#1 153319#2 153319#3 153319#4 153355#0 153355#1 153350#0 153350#1 153350#2 153353#2 -152953 -152279 152550"/>
    </vehicle>
    <vehicle id="commercial_1-GW1_321" type="commercial" depart="18388" departLane="best" arrivalPos="random">
        <route edges="-152684#0 152668#1 152668#2 -152771#0 152806#0 152806#1 152806#2 152816 152956#1 152956#2 152956#3 152956#4 152301 152308#0 152308#1 152308#2 -152305 152314#1 152314#2 152314#3 152135 152133#0 152134 152964 -152266 -152414 -152954 153472#1 153472#2 153472#3 153472#5 153472#6 153472#7 153472#8 153472#9 153472#10 153472#11 153472#12 153472#13 153472#14 153472#15 153472#16 153472#17 153472#18 153472#19 153472#20 153472#22 153472#23 153472#24 153472#25 153472#26 -152299 -153338 -152298 -153473#1 -153473#0 -152253 -152923 -152300 -153474"/>
    </vehicle>
    <vehicle id="commercial_2-1_105" type="commercial" depart="18402" departLane="best" arrivalPos="random">
        <route edges="153472#1 153472#2 -152889#1 -152889#0 153446 -153472#1 -153472#0 152414 152266 152415#0 152415#1 152304 152314#3 152314#4 152305 152308#3 -152301 -152827#2 -152827#1 -152827#0 152812#4 152812#5 -152806#2 -152806#1 -152806#0 152771#0 -152377 -152712 -152763#3"/>
    </vehicle>
    <vehicle id="commercial_1-GW2_146" type="commercial" depart="18405" departLane="best" arrivalPos="random">
        <route edges="-153004#6 -153004#5 -153004#4 -153004#3 -153004#2 -153004#1 -153004#0 -153472#9 -153472#8 -153472#7 -153472#6 -153472#5 -153472#3 -153472#2 -153472#1 -153472#0 152414 152266 152415#0 152415#1 152304 152314#3 152314#4 152305 152308#3 152308#0 152267 152419 152202 -152381 -152289 152790 152288 152796 152287 152757 152286 152282 152665#0 152665#1 152359#2 -152603 -152166#1 -152166#0 -152220 152583#0 152583#1 152583#2 152583#3 152216 152575#0 152575#1 152344 152341#0 152577#0 152577#1 152577#2 152577#3 152577#4 -152556 153359#3 153319#0 153319#1 153319#2 153319#3 153319#4 153355#0 153355#1 153350#0 153350#1 153350#2 153353#2 -152953 -152279 152550"/>
    </vehicle>
    <vehicle id="commercial_2-1_250" type="commercial" depart="18420" departLane="best" arrivalPos="random">
        <route edges="-153475#7 -153475#6 -153475#5 -153475#3 -153475#2 -153475#1 -153475#0 -153472#25 -153472#24 -153472#23 -153472#22 -153472#20 -153472#19 -153472#18 -153472#17 -153472#16 -153472#15 -153472#14 -153472#13 -153472#12 -153472#11 -153472#10 -153472#9 -153472#8 -153472#7 -153472#6 -153472#5 -153472#3 -153472#2 -153472#1 -153472#0 152414 152266 152415#0 152415#1 152304 152314#3 152314#4 152305 152308#3 -152301 -152827#2 -152827#1 -152827#0 152812#4 152812#5 -152806#2 -152806#1 -152806#0 152771#0 -152668#2 -152668#1 -152646#0 -152673#5 152664#0 152664#1 -152660#6"/>
    </vehicle>
    <vehicle id="commercial_1-3_10" type="commercial" depart="18428" departLane="best" arrivalPos="random">
        <route edges="152804 152955#3 -152817#2 -152817#1 -152817#0 152133#6 152133#7 -152135 152314#4 152314#1 152314#2 -152304 152277 152526 -152326#5 -152326#4 -152326#3 -152326#2 -152326#1 -152326#0 153633 153630#1 153632#1 152998#0 152998#1 -153454#1 -153454#0"/>
    </vehicle>
    <vehicle id="commercial_3-1_73" type="commercial" depart="18429" departLane="best" arrivalPos="random">
        <route edges="-152746#2 -152746#1 -152746#0 152746#4 152746#5 152746#7 152746#8 -152409#0 152408 -152533 152924#4 152407 152527 152324#1 152284 152851 152206 152532 152390 153637 152326#0 152326#1 152326#2 152326#3 152326#4 152326#5 152162 152164#0 152164#1 152395#1 152395#2 152897#0 152897#1 152316 152399 -152954 152891#1 152891#2 152978#0 152978#1 152978#2 -152979 152869#0 152869#1 152869#2 152869#3 152294 -152642 -152394#1 -152394#0"/>
    </vehicle>
    <vehicle id="commercial_1-2_20" type="commercial" depart="18433" departLane="best" arrivalPos="random">
        <route edges="-152773 152380 152812#0 152812#1 152812#2 152812#3 152812#4 152812#5 -152806#2 -152806#1 -152800 152935#1 152935#2 152542 -152763#2 -152776 -152702#3 -152702#2 -152702#1 -152702#0 -152995 -152993 -153409#16 -153409#15 -153409#14 153411#0 153411#1 153327#0 153327#1 153327#2 153327#4 153327#5 153327#6 153327#7 153327#8 153327#9 153327#10 153327#11 153325#4 153325#5 153408#5 152247 153381#0 153381#1 152246 153379#0 -153382 152172#1 152351#0 152351#1 -152351#1 -152351#0 -152172#1 -152172#0 -153379#0 -152246 -153381#1 -153381#0"/>
    </vehicle>
    <vehicle id="commercial_2-1_119" type="commercial" depart="18439" departLane="best" arrivalPos="random">