<?xml version="1.0" encoding="UTF-8"?>

<!-- 
    Monaco SUMO Traffic (MoST) Scenario
    Copyright (C) 2018 
    Lara CODECA

    This program is free software: you can redistribute it and/or modify
    it under the terms of the GNU General Public License as published by
    the Free Software Foundation, either version 3 of the License, or
    (at your option) any later version.

    This program is distributed in the hope that it will be useful,
    but WITHOUT ANY WARRANTY; without even the implied warranty of
    MERCHANTABILITY or FITNESS FOR A PARTICULAR PURPOSE.  See the
    GNU General Public License for more details.

    You should have received a copy of the GNU General Public License
    along with this program.  If not, see <http://www.gnu.org/licenses/>.
-->

<routes xmlns:xsi="http://www.w3.org/2001/XMLSchema-instance" xsi:noNamespaceSchemaLocation="http://sumo.dlr.de/xsd/routes_file.xsd">
    <vehicle id="other_2_1103" type="truck" depart="18084.00" departLane="best">
        <route edges="-561 674#2 -307#1 -307#0 306 338#1 -1377#3 -1377#2 -1377#1 -1377#0 1393#6 1393#7 1375#1 1366#1 652#0 -654#2 -654#1 -654#0 1332#0 1332#1 1512#0 1512#1 1512#2 1333 1328#1 1328#2 -544#1 -544#0 -1325#5 -1325#4 -1325#3 -1325#2 -1325#1 -1325#0 -1324#0 -1326#0 -1353#5 -1263#6 -1263#5 -1263#4 -1265#11 -1265#10 -1265#9 -1265#8 -1265#7 -1265#6 -1265#5 -1265#4 -1265#2 -1265#1 -1265#0 -1356#2 -1356#0 1354#15 1354#16 1354#17 923 925 624#0 624#2 624#3 619#3 619#4 619#5 621 622 574#1 574#2 -595#5 -595#4 -595#3 -595#2 -595#1 -595#0 588 571#1 571#2 439#0 439#2 439#4 439#6 524 529 440#2 440#3"/>
    </vehicle>
    <vehicle id="other_2_246" type="delivery" depart="18103.00" departLane="best">
        <route edges="-1391#8 -1391#7 -1391#6 -1391#5 -1391#4 -1391#3 -1391#2 -1391#1 -1391#0 -1382#2 -1382#1 -1383#3 -1383#2 -1383#1 1385 731#1 731#2 731#3 731#4 731#5 733#9 720 700 1499#2 1499#3 746#0 746#1 893#1 1495#0 1495#1 1495#2 1495#3 744#0 744#1 884#11 883#1 883#2 883#3 -736#3 -736#2 -736#1 -736#0 -694 780 782 779"/>
    </vehicle>
    <vehicle id="other_3_436" type="emergency" depart="18165.00" departLane="best">
        <route edges="-1277 -1282#0 916#1 456 -918 -1437 -1298#2 -1295#2 -1295#1 -1295#0 -1300#1 -1300#0 856#3 856#0 -468#6 -468#5 -468#4 -468#3 -468#2 -468#1 -468#0 1313#1 1423#0 1423#1 1423#2 1423#3 1423#4 1423#5 1423#6 1423#7 497#1 236 494#0 494#1 494#2 494#3 494#4 350#2 350#3 350#4 -349 -95#0 -520#2 -520#1 -520#0 -584#11 -584#10 -584#9 -584#8 -584#7 -584#6 -584#5 -584#4 -584#3 -584#2 -584#1 620#0 620#1 -693#5 -693#4 -693#3 -693#2 -693#1 -693#0 729#0 729#1 729#2 862#2 862#3 739 884#1 884#2 884#3 884#4 884#5 884#6 884#7 884#8 884#11 883#1 883#2 883#3 -736#3 -736#2 -736#1 -736#0 -694 780 782 781 -809 786"/>
    </vehicle>
    <vehicle id="other_2_824" type="coach" depart="18194.00" departLane="best">
        <route edges="-1302#1 -1302#0 1260#3 1260#4 1313#1 1423#0 1423#1 1423#2 1423#3 1423#4 1423#5 1423#6 1423#7 497#1 236 494#0 494#1 494#2 494#3 494#4 350#2 350#3 350#4 -349 -95#0 -520#2 -520#1 -520#0 -584#11 -584#10 -584#9 -584#8 -584#7 -584#6 -584#5 -584#4 -584#3 -584#2 -584#1 620#0 620#1 -693#5 -693#4 -693#3 -693#2 -693#1 -693#0 729#0 729#1 729#2 862#2 862#3 739 884#1 884#2 884#3 884#4 188 198#0 198#1 198#2 -194 204#1 203 -820#2 -820#1 -820#0 899 807#1 807#2 822#1 907#4 907#0 907#1 815#0 815#1 -793#0 908"/>
    </vehicle>
    <vehicle id="other_2_686" type="delivery" depart="18276.00" departLane="best">
        <route edges="-468#6 -468#5 -468#4 -468#3 -468#2 -468#1 -468#0 1313#1 1423#0 1423#1 1423#2 1423#3 1423#4 1423#5 1423#6 1423#7 497#1 236 494#0 494#1 494#2 494#3 494#4 350#2 350#3 350#4 -349 -95#0 -520#2 -520#1 -520#0 -584#11 -584#10 -584#9 -584#8 -584#7 -584#6 -584#5 -584#4 -584#3 -584#2 -584#1 620#0 620#1 -693#5 -693#4 -693#3 -693#2 -693#1 -693#0 729#0 729#1 729#2 862#2 862#3 739 884#1 884#2 884#3 884#4 884#5 884#6 884#7 884#8 884#11 883#1 883#2 883#3 -736#3 -736#2 -736#1 -736#0 -694 780 782 781 -809 786 408"/>
    </vehicle>
    <vehicle id="other_2_242" type="emergency" depart="18294.00" departLane="best">
        <route edges="1393#3 1393#4 1393#5 1393#6 1393#7 1375#1 1366#1 652#0 -654#2 -654#1 -654#0 1332#0 1332#1 1512#0 1512#1 1512#2 1333 1328#1 1328#2 -544#1 -544#0 -1325#5 -1325#4 -1325#3 -1325#2 -1325#1 -1325#0 -1324#0 -1326#0 -1353#5 -1263#6 -1263#5 -1263#4 -1265#11 -1265#10 -1265#9 -1265#8 -1265#7 -1265#6 -1265#5 -1265#4 -1265#2 -1265#1 -1265#0 -1356#2 -1356#0 1354#15 1354#16 1354#17 923 925 624#0 624#2 624#3 619#3 619#4 619#5 621 622 620#0 -606#2 -606#1 -872#1 -872#0 -590#1 606#0"/>
    </vehicle>
    <vehicle id="other_2_638" type="delivery" depart="18336.00" departLane="best">
        <route edges="-951#0 -1324#0 -1326#0 -1353#5 -1263#6 -1263#5 -1263#4 -1263#3 -1263#2 -1263#1 -1263#0 855#3 -1340#1 -1340#0 565#0 565#1 565#2 565#3 565#4 565#5 1347#0 1347#1 1347#2 597 596 447 563#0 564#0 564#1 564#2 564#3 564#4 564#5 564#6 240#2 240#3 -416#1"/>
    </vehicle>
    <vehicle id="other_2_653" type="taxi" depart="18361.00" departLane="best">
        <route edges="206 296 312 153 313#0 313#1 193 204#3 204#4 194 198#3 198#0 154 317#0 317#1 71#0 71#1 -176 713 175 719 174 679 173 170 571#1 571#2 439#0 439#2 439#4 439#6 439#7 439#9 359#3 359#4"/>
    </vehicle>
    <vehicle id="other_1_128" type="delivery" depart="18400.00" departLane="best">
        <route edges="822#0 -807#2 -807#1 -807#0 820#0 820#1 820#2 -182 776 6#3 6#4 6#5 6#6 6#7 -8 204#4 194 198#3 -188 884#5 884#6 884#7 884#8 -744#1 -744#0 -1495#3 -1495#2 -1495#1 -1495#0 -893#1 -893#0 868#0 868#1 868#2 102 867#0 867#1 677"/>
    </vehicle>
    <vehicle id="other_2_249" type="delivery" depart="18426.00" departLane="best">
        <route edges="-1276 -185 -1419#1 -825 1400#1 932#0 932#1 1597 216#0 216#1 216#2 216#3 216#4 216#5 216#6 216#7 216#8 -933#3 -933#2 -933#1 -933#0 -821#1 -821#0 294#0 294#1 294#2 861#0 861#1 861#2"/>
        <stop parkingArea="152664" duration="43200.00"/>
    </vehicle>
    <vehicle id="other_1_11" type="emergency" depart="18471.00" departLane="best">
        <route edges="871 785 -722 -718 -678 -681 694 736#0 736#1 736#2 736#3 883#4 697 737#0 737#1 737#2 737#3 737#4 281 707#0 707#1 707#2 -366 -707#3 -707#2 -707#1 -707#0 279"/>
    </vehicle>
    <vehicle id="other_2_840" type="delivery" depart="18522.00" departLane="best">
        <route edges="626#1 624#3 619#3 619#4 619#5 621 623#0 623#1 623#2 596 447 563#0 564#0 564#1 564#2 564#3 564#4 564#5 564#6 240#2 240#3 -416#1 -521#12 -521#11 -521#10 -860#4 -860#3 -860#2 -860#1 -860#0 865#0 865#1 865#2 865#3 865#4 1321#4 1321#5 1321#6"/>
    </vehicle>
    <vehicle id="other_3_504" type="coach" depart="18526.00" departLane="best">
        <route edges="-1335#4 -1335#3 -1335#2 -1335#1 -1335#0 -307#2 -307#1 -307#0 306 338#1 -1377#3 -1377#2 -1377#1 -1377#0 1393#6 1393#7 1375#1 1366#1 652#0 -654#2 -654#1 -654#0 1332#0 1332#1 1512#0 1512#1 1261#0 1261#1 1261#2 1261#3 1261#4 1261#5 1261#6 1261#7 1261#8 1261#9 1261#10 1261#11 1261#12 -1269#7 -1269#6 -1269#5 -1269#4 -1269#3 -1269#2 -1269#1 -1269#0 -1386#0 -1383#3 -1383#2 -1383#1 1385 731#1 731#2 731#3 731#4 731#5 733#9 720 700 1499#2 1499#3 746#0 746#1 893#1 893#2 893#3 893#4 893#5 -714#1 743#0 743#1 6#7 -8 204#4 194 198#3 -188 -750#2"/>
    </vehicle>
    <vehicle id="other_2_316" type="coach" depart="18542.00" departLane="best">
        <route edges="-224 -1302#1 -1302#0 1260#3 1260#4 1313#1 1423#0 1423#1 1423#2 1423#3 1423#4 1423#5 1423#6 1423#7 497#1 236 494#0 494#1 494#2 494#3 494#4 350#2 350#3 350#4 -349 -95#0 -520#2 -520#1 -520#0 -584#11 -584#10 -584#9 -584#8 -584#7 -584#6 -584#5 -584#4 632#0 632#1 632#2 632#3 -619#5 -619#4 -619#3 -619#2 -619#1 -619#0 102 368#0 368#1"/>
    </vehicle>
    <vehicle id="other_2_1132" type="delivery" depart="18562.00" departLane="best">
        <route edges="564#5 1339#0 1339#1 1339#2 1339#3 1337#4 939#0 939#1 565#1 565#2 565#3 565#4 565#5 1347#0 1347#1 1347#2"/>
    </vehicle>
    <vehicle id="other_1_1163" type="emergency" depart="18617.00" departLane="best">
        <route edges="1501 -369#0 1421 361#1 197 198#2 198#3 -188 884#5 884#6 884#7 884#8 884#11 883#1 883#2 883#3 883#4 697 737#0 737#1 737#2 737#3 280#0 280#1 695"/>
    </vehicle>
    <vehicle id="other_1_209" type="truck" depart="18707.00" departLane="best">
        <route edges="858 725 -722 -718 -678 -681 694 736#0 736#1 736#2 736#3 883#4 883#0 883#1 883#2 -740#2 -740#0 6#6 6#7 -8 204#4 194 198#3 -188 884#5 884#6 884#7 884#8 -744#1 -744#0 -1495#3 -1495#2 -1495#1 -1495#0 -893#1 -746#1 -746#0 1499#0 1499#1 -700 -720 -733#9"/>
    </vehicle>
    <vehicle id="other_2_1071" type="delivery" depart="18814.00" departLane="best">
        <route edges="530#0 530#1 530#2 -889#0 860#0 860#1 860#2 860#3 860#4 521#10 521#11 521#12 416#1 240#4 240#1 -564#6 -564#5 -564#4 -564#3 -564#2 -564#1 -564#0 563#1 563#2 1346#0 1346#1 1346#2 1346#3 1347#0 1347#1 1347#2 864 602 632#3 -619#5 -619#4 -619#3 -619#2 -619#1 -619#0 102 867#0 711 703#2 893#0 893#1 893#2 893#3 893#4 893#5 912#0 912#1 751#0 751#1"/>
        <stop parkingArea="152635" duration="43200.00"/>
    </vehicle>
    <vehicle id="other_2_654" type="emergency" depart="18842.00" departLane="best">
        <route edges="951#2 951#3 1315#1 1315#2 1315#3 1315#4 1315#5 1315#6 1315#7 1315#8 1315#9 1315#10 1315#11 1315#12 1315#13 1315#14 855#1 855#2 855#3 -1340#1 -1340#0 565#0 565#1 565#2 565#3 565#4 565#5 1347#0 1347#1 1347#2 864 602 632#3 -619#5 -619#4 -619#3 -619#2 -619#1 -619#0 102 867#0 711 703#2 893#0 893#1 1495#0 1495#1 1495#2 1495#3 744#0 744#1 884#11 883#1 883#2 883#3 883#4 697 737#0 737#1 737#2 737#3 737#4 281 371 179 1596 1595 794#4 794#5 794#0 794#1 794#2 794#3"/>
    </vehicle>
    <vehicle id="other_1_866" type="delivery" depart="18869.00" departLane="best">
        <route edges="860#1 860#2 860#3 860#4 521#10 521#11 521#12 416#1 240#4 240#1 -564#6 -564#5 -564#4 -564#3 -564#2 -564#1 -564#0 563#1 563#2 1346#0 1346#1 1346#2 1346#3 1347#0 1347#1 1347#2 864 602 632#3 -619#5 -619#4 -619#3 -619#2 -619#1 -619#0 102 867#0 867#1 -733#13 -733#12 -733#11 -733#10 -733#9 -733#8 -733#7 -733#6 -733#5 -733#4 -733#3 -733#2 817 733#1 733#2 733#3 733#4 733#5 733#6 733#7"/>
    </vehicle>
    <vehicle id="other_1_860" type="taxi" depart="18932.00" departLane="best">
        <route edges="1385 731#1 731#2 731#3 731#4 731#5 733#9 733#10 733#11 733#12 733#13 677 738 868#2 619#0 619#1 619#2 619#3 619#4 619#5 621 622 574#1 574#2 -595#5 585#0 585#1 -581#6 -581#5 -581#4 -581#3 -581#2 -581#1 -581#0 250#1 250#2 250#3"/>
    </vehicle>
    <vehicle id="other_3_144" type="delivery" depart="18984.00" departLane="best">
        <route edges="-1282#0 916#1 456 -918 -1437 -1298#2 -1295#2 -1295#1 -1295#0 -1300#1 -1300#0 856#3 856#0 -468#6 -468#5 -468#4 -468#3 -468#2 -468#1 -468#0 1313#1 1423#0 1423#1 1423#2 1423#3 1423#4 1423#5 1423#6 1423#7 497#1 236 494#0 494#1 494#2 494#3 494#4 350#2 350#3 350#4 -349 -95#0 -520#2 -520#1 -520#0 -584#11 -584#10 -584#9 -584#8 -584#7 -584#6 -584#5 -584#4 -584#3 -584#2 -584#1 620#0 620#1 -693#5 -693#4 -693#3 -693#2 -693#1 -693#0 729#0 729#1 729#2 862#2 862#3 739 884#1 884#2 884#3 884#4 188 198#0 198#1 198#2 -194 204#1 204#2 204#3 8 6#0 7 892 -153 -312 -882 816#1 -315 -1"/>
    </vehicle>
    <vehicle id="other_3_170" type="trailer" depart="19070.00" departLane="best">
        <route edges="-448 456 -918 -1437 -1298#2 -1295#2 -1295#1 -1295#0 -1300#1 -1300#0 856#3 856#0 -468#6 -468#5 -468#4 -468#3 -468#2 -468#1 -468#0 1313#1 1423#0 1423#1 1423#2 1423#3 1423#4 1423#5 1423#6 1423#7 497#1 236 494#0 494#1 494#2 494#3 494#4 350#2 350#3 350#4 -349 -95#0 -520#2 -520#1 -520#0 -584#11 -584#10 -584#9 -584#8 -584#7 -584#6 -584#5 -584#4 632#0 578 873"/>
    </vehicle>
    <vehicle id="other_2_1064" type="truck" depart="19146.00" departLane="best">
        <route edges="-901 646 605 1361#3 1361#4 1361#5 1361#6 1361#7 1353#3 1353#4 -1263#6 -1263#5 -1263#4 -1265#11 -1265#10 -1265#9 -1265#8 -1265#7 -1265#6 -1265#5 -1265#4 -1265#2 -1265#1 -1265#0 -1356#2 -1356#0 1354#15 1354#16 1354#17 923 925 624#0 624#2 624#3 -619#2 -619#1 -619#0 102 867#0 711 703#2 893#0 893#1 893#2 893#3 893#4 893#5 -714#1 743#0 743#1 6#7 6#0 6#1 6#2 -776 182 -820#2 -820#1 -820#0 1510 900#2 900#3 806#0 890#0 890#1"/>
    </vehicle>
    <vehicle id="other_3_243" type="taxi" depart="19149.00" departLane="best">
        <route edges="929#1 -1400#1 825 1419#1 185 1276 186 -1418#27 -1418#26 -1418#25 -1418#24 -1418#23 -1418#21 -1418#20 -1418#19 -1418#18 -1418#17 -1418#16 -1418#13 -1418#12 -1418#11 -1418#10 -1418#9 -1418#8 -1418#7 -1418#6 -1418#5 -1418#3 -1418#2 -1418#1 -1418#0 312 153 313#0 313#1 193 204#3 204#4 194 198#3 -188 -750#2 724#1 701#0 701#1 278#2 -702#1"/>
    </vehicle>
    <vehicle id="other_2_693" type="taxi" depart="19233.00" departLane="best">
        <route edges="-1286 -448 456 -918 -1437 -1298#2 -1295#2 -1295#1 -1295#0 -1300#1 -1300#0 856#3 856#0 -468#6 -468#5 -468#4 -468#3 -468#2 -468#1 -468#0 1313#1 1423#0 1423#1 1423#2 1423#3 1423#4 1423#5 1423#6 1423#7 497#1 236 494#0 494#1 494#2 494#3 494#4 350#2 350#3 521#0 -525#1 532 521#2 521#3 521#4 521#5 521#6 521#8 521#9 521#10 521#11 521#12 416#1 240#4 240#1 -564#6 -564#5 -564#4 -564#3 -564#2 -564#1 -564#0 563#1 563#2 1346#0 1346#1 1346#2"/>
    </vehicle>
    <vehicle id="other_2_893" type="taxi" depart="19265.00" departLane="best">
        <route edges="889#0 889#1 -530#1 -530#0 350#3 350#4 -349 -95#0 -520#2 -520#1 -520#0 -584#11 -584#10 -584#9 -584#8 -584#7 -584#6 -584#5 -585#2 -585#1 -585#0 -595#4 -595#3 -595#2 -595#1 -595#0 588 571#1 571#2 439#0 439#2 439#4 439#6 439#7 439#9"/>
    </vehicle>
    <vehicle id="other_2_982" type="delivery" depart="19277.00" departLane="best">
        <route edges="868#1 868#2 619#0 619#1 619#2 619#3 619#4 394#0"/>
    </vehicle>
    <vehicle id="other_2_1032" type="taxi" depart="19290.00" departLane="best">
        <route edges="-834#1 -834#0 937#0 937#1 834#0 834#1 834#2 834#3 834#4 834#5 834#6 834#8 907#1 907#2 907#3 -822#1 -822#0 900#3 900#4 803#0 803#1 803#2 794#5 794#0 794#1 794#2 1594 180#0 180#1 891 735#2 735#3 735#4 735#5 862#0 862#1 -729#2 -729#1 -723 863#1 863#2 455 -685#2 -698 -624#3 -624#2 -624#0 -925 -923 -1354#17 -1354#16 -1354#15 1356#0 1356#2 1265#0 1265#1 1265#2 1265#4 922#0 922#2 922#3 922#4 922#5 922#6 922#7 922#8 -1340#0 1354#0 1354#1 1354#3 1354#4 1354#5 1354#6 1354#7 1354#8 1354#9 1354#10 1354#11"/>
    </vehicle>
    <vehicle id="other_2_1195" type="delivery" depart="19362.00" departLane="best">
        <route edges="416#1 240#4 240#1 240#2 241#0 241#1 -569#0 -584#11 -584#10 -584#9 -584#8 -584#7 -584#6 -584#5 -585#2 -585#1 -585#0 -595#4 -595#3 -595#2 -595#1 -595#0 588 571#1 571#2 571#3 571#4 587#3 587#4 165 -173 -679 -174 -719 -175 -713"/>
    </vehicle>
    <vehicle id="other_2_585" type="taxi" depart="19382.00" departLane="best">
        <route edges="-1290#2 -1290#1 -1290#0 946#2 -1529#1 -1529#2 -946#2 1290#0 1290#1 1290#2 1290#3 1290#4 -1288#0 121 1292 1301#0 1301#1 1260#1 1260#2 1260#3 1260#4 1313#1 1423#0 1423#1 1423#2 1423#3 1423#4 1423#5 1423#6 1423#7 87 -1319#2 -1319#1 -1319#0 -490#0 231#0 231#1 -491#1 -491#0 -499#2 -499#1 -499#0 522#1 250#3 250#0 250#1 -586#1 587#0 587#1 587#2 587#3 587#4"/>
    </vehicle>
    <vehicle id="other_3_213" type="taxi" depart="19392.00" departLane="best">
        <route edges="-928#3 -928#2 -928#1 -928#0 -1377#2 -1377#1 -1377#0 1393#6 1393#7 1375#1 1366#1 652#0 -654#2 -654#1 -654#0 1332#0 1332#1 1512#0 1512#1 1261#0 1261#1 1261#2 1261#3 1261#4 1261#5 1261#6 1261#7 1261#8 1261#9 1261#10 1261#11 1261#12 -1269#7 -1269#6 -1269#5 -1269#4 -1269#3 -1269#2 -1269#1 -1269#0 -1386#0 -1383#3 -1383#2 -1383#1 1385 731#1 731#2 731#3 731#4 731#5 733#9 720 700 1499#2 1499#3 746#0 746#1 893#1 893#2 893#3 893#4 893#5 -714#1 743#0 743#1 6#7 -8 204#4 204#1 203 -182"/>
    </vehicle>
    <vehicle id="other_1_365" type="coach" depart="19404.00" departLane="best">
        <route edges="71#0 -274#0 862#3 862#4 862#0 862#1 -729#2 -729#1 -723 863#1 863#2 455 -685#2 -685#1 -685#0 -619#0 102 867#0 867#1"/>
    </vehicle>
    <vehicle id="other_3_282" type="trailer" depart="19405.00" departLane="best">
        <route edges="1280 -1282#0 916#1 456 -918 -1437 -1298#2 -1295#2 -1295#1 -1295#0 -1300#1 -1300#0 856#3 856#0 -468#6 -468#5 -468#4 -468#3 -468#2 -468#1 -468#0 1313#1 1423#0 1423#1 1423#2 1423#3 1423#4 1423#5 1423#6 1423#7 497#1 236 494#0 494#1 494#2 494#3 494#4 350#2 350#3 350#4 -349 -95#0 -520#2 -520#1 -520#0 -584#11 -584#10 -584#9 -584#8 -584#7 -584#6 -584#5 -584#4 632#0 632#1 632#2 632#3 -619#5 -619#4 -619#3 -619#2 -619#1 -619#0 102 867#0 867#1 -733#13 -733#12 -733#11 -733#10 -733#9 -731#5 -731#4 -731#3 -731#2 -731#1 -731#0"/>
    </vehicle>
    <vehicle id="other_2_65" type="taxi" depart="19468.00" departLane="best">
        <route edges="-919#0 856#0 -468#6 -468#5 -468#4 -468#3 -468#2 -468#1 -468#0 1313#1 1423#0 1423#1 1423#2 1423#3 1423#4 1423#5 1423#6 1423#7 497#1 236 494#0 494#1 494#2 494#3 494#4 350#2 350#3 350#4 -349 -95#0 -520#2 -520#1 -520#0 -584#11 -584#10 -584#9 -584#8 -584#7 -584#6 -584#5 -584#4 632#0 632#1 632#2 632#3 -619#5 -619#4 -619#3 -619#2 -619#1 -619#0 102 867#0 867#1 677 738"/>
    </vehicle>
    <vehicle id="other_3_393" type="taxi" depart="19485.00" departLane="best">
        <route edges="1597 216#0 216#1 216#2 216#3 216#4 216#5 216#6 216#7 216#8 216#9 216#10 291#1 291#2 291#3 -811#1 -811#0 183 -812#1 -812#0 -1386#4 -1386#3 -1386#2 -1386#1 -1386#0 1382#1 1382#2 1382#3 1382#4 1382#5 1382#6 -134#0 -1364#3 1351#0 1351#1 1351#2 1351#3 1351#4 1351#5 1351#6 -1356#6 -1356#5 -1356#4 -1356#3"/>
    </vehicle>
    <vehicle id="other_1_609" type="taxi" depart="19490.00" departLane="best">
        <route edges="-787 -407 871 785 -722 -718 -678 -681 694 736#0 736#1 736#2 736#3 883#4 697 737#0 737#1 737#2 737#3 737#4 735#0 735#1 735#2 735#3 735#4 735#5 862#0 862#1 -729#2 -729#1 -729#0 693#0 693#1 693#2 693#3 693#4 693#5 -620#1 -620#0 584#1 584#2 584#3 584#4 584#5 584#6 584#7 584#8 584#9 584#10 584#11 584#12 520#1 520#2 520#4 95#1 350#1 350#2 530#0 530#1 530#2 -889#0 865#0 865#1 865#2 865#3 865#4 -1321#3 -1321#2"/>
    </vehicle>
    <vehicle id="other_2_608" type="delivery" depart="19503.00" departLane="best">
        <route edges="641#1 1332#0 1332#1 1512#0 1512#1 1512#2 1333 1328#1 1328#2 -544#1 -544#0 -1325#5 -1325#4 -1325#3 -1325#2 -1325#1 -1325#0 -1324#0 -1326#0 -1353#5 -1263#6 -1263#5 -1263#4 -1265#11 -1265#10 -1265#9 -1265#8 -1265#7 -1265#6 -1265#5 -1265#4 -1265#2 -1265#1 -1265#0 -1356#2 -1356#0 1354#15 1354#16 1354#17 923 925 624#0 624#2 624#3 698 685#2 -455 -863#2 -863#1 -863#0 729#1 729#2 862#2 862#3 739 884#1 884#2"/>
    </vehicle>
    <vehicle id="other_2_629" type="truck" depart="19583.00" departLane="best">
        <route edges="-473#0 1423#2 1423#3 1423#4 1423#5 1423#6 1423#7 497#1 236 494#0 494#1 494#2 494#3 494#4 350#2 350#3 350#4 -349 -95#0 -520#2 -520#1 -520#0 -584#11 -584#10 -584#9 -584#8 -584#7 -584#6 -584#5 -584#4 632#0 632#1 632#2 632#3 -619#5 394#0 394#1 394#2 394#3 -630 629#2 -628"/>
    </vehicle>
    <vehicle id="other_3_1" type="emergency" depart="19616.00" departLane="best">
        <route edges="-1530 -928#3 -928#2 -928#1 -928#0 -1377#2 -1377#1 -1377#0 1393#6 1393#7 1375#1 1366#1 652#0 -654#2 -654#1 -654#0 1332#0 1332#1 1512#0 1512#1 1512#2 1333 1328#1 1328#2 -544#1 -544#0 -1325#5 -1325#4 -1325#3 -1325#2 -1325#1 -1325#0 -1324#0 -1326#0 -1353#5 -1263#6 -1263#5 -1263#4 -1265#11 -1265#10 -1265#9 -1265#8 -1265#7 -1265#6 -1265#5 -1265#4 -1265#2 -1265#1 -1265#0 -1356#2 -1356#0 1354#15 1354#16 1354#17 923 925 624#0 624#2 624#3 619#3 619#4 619#5 621 622 574#1 574#2 -595#5 -595#4 -595#3 -595#2 -595#1 -595#0 588 571#1 571#2"/>
    </vehicle>
    <vehicle id="other_1_956" type="delivery" depart="19637.00" departLane="best">
        <route edges="-368#0 867#0 711 703#2 868#0 868#1 868#2 619#0 619#1 619#2"/>
    </vehicle>
    <vehicle id="other_2_90" type="delivery" depart="19646.00" departLane="best">
        <route edges="-521#12 -521#11 -521#10 -521#9 -521#8 -521#6 -521#5 -521#4 -521#3 -521#2 -532 -525#0 -520#2 -520#1 -520#0 -584#11 -584#10 -570 -591 -576 -568 -873 -578"/>
    </vehicle>
    <vehicle id="other_2_1021" type="delivery" depart="19651.00" departLane="best">
        <route edges="-978 -1382#1 -1383#3 -1383#2 -1383#1 1385 731#1 731#2 731#3 731#4 731#5 733#9 720 700 1499#2 1499#3 746#0 746#1 893#1 893#2 893#3 893#4 893#5 -714#1 743#0 743#1 6#7 -8 204#4 194 198#3 -188 -750#2 -750#1 278#1"/>
    </vehicle>
    <vehicle id="other_2_89" type="delivery" depart="19659.00" departLane="best">
        <route edges="-833#1 -833#0 -815#0 907#2 -908"/>
    </vehicle>
    <vehicle id="other_2_135" type="trailer" depart="19665.00" departLane="best">
        <route edges="860#2 860#3 860#4 521#10 521#11 521#12 416#1 240#4 240#1 240#2 241#0 241#1 -569#0 -584#11 -584#10 -584#9 -584#8 -584#7 -584#6 -584#5 -585#2 -585#1 -585#0 -595#4 -595#3 -595#2 -595#1 -595#0 588 571#1 571#2 439#0 439#2 439#4 439#6 439#7 439#9"/>
    </vehicle>
    <vehicle id="other_3_584" type="taxi" depart="19687.00" departLane="best">
        <route edges="451 456 -918 -1437 -1298#2 -1295#2 -1295#1 -1295#0 -1300#1 -1300#0 856#3 856#0 -468#6 -468#5 -468#4 -468#3 -468#2 -468#1 -468#0 1313#1 1423#0 1423#1 1423#2 1423#3 1423#4 1423#5 1423#6 1423#7 497#1 236 494#0 494#1 494#2 494#3 494#4 350#2 350#3 350#4 -349 -95#0 -520#2 -520#1 -520#0 -584#11 -584#10 -584#9 -584#8 -584#7 -584#6 -584#5 -584#4 -584#3 -584#2 -584#1 620#0 620#1 -693#5 -693#4 -693#3 -693#2 -693#1 -693#0 729#0 729#1 729#2 862#2 862#3 739 884#1 884#2 884#3 884#4 884#5 884#6 884#7 884#8 884#11 883#1 883#2 883#3 883#4 697 737#0 737#1 737#2 737#3 280#0 280#1 695 271 208#3 689"/>
    </vehicle>
    <vehicle id="other_1_374" type="coach" depart="19698.00" departLane="best">
        <route edges="-736#3 -736#2 -736#1 -736#0 -694 681 -691 692 -678 -681 694 736#0 736#1 736#2 736#3 883#4 883#0 883#1 883#2 -740#2 -740#0 6#6 6#7 6#0 7 892 -153 -312 -882 816#1 816#2 907#0 907#1 907#2 -908 793#0 793#1 793#2 289#0 289#1 -289#4 -289#3 -289#2 -289#1 -289#0"/>
    </vehicle>
    <vehicle id="other_1_584" type="delivery" depart="19706.00" departLane="best">
        <route edges="862#3 862#4 862#0 862#1 -729#2 -729#1 -729#0 693#0 693#1 693#2 693#3 693#4 693#5 -620#1 -620#0 584#1 584#2 584#3 632#0 632#1 623#2 596 447 563#0 563#1 563#2 1346#0 1346#1 1346#2 1346#3 1347#0"/>
    </vehicle>
    <vehicle id="other_2_791" type="taxi" depart="19738.00" departLane="best">
        <route edges="646 605 1361#3 1361#4 1361#5 1361#6 1361#7 1353#3 1353#4 -1263#6 -1263#5 -1263#4 -1265#11 -1265#10 -1265#9 -1265#8 -1265#7 -1265#6 -1265#5 -1265#4 -1265#2 -1265#1 -1265#0 -1356#2 -1356#0 1354#15 1354#16 1354#17 923 925 624#0 624#2 624#3 -619#2 -619#1 -619#0 102 867#0 711 703#2 893#0 893#1 893#2 893#3 893#4 893#5 912#0 912#1 751#0 751#1 751#2 751#3 751#4 751#5 751#6 -790#4 -790#3 -790#2 -790#1"/>
    </vehicle>
    <vehicle id="other_1_680" type="trailer" depart="19765.00" departLane="best">
        <route edges="587#2 587#3 1496 595#0 595#1 595#2 595#3 595#4 585#0 585#1 585#2 -584#4 632#0 632#1 623#2 596 447 563#0 563#1 563#2 1337#0 1337#1 1337#2 1337#3 1337#4 939#0 939#1 565#1 565#2 -599"/>
    </vehicle>
    <vehicle id="other_3_463" type="taxi" depart="19796.00" departLane="best">
        <route edges="-1393#0 -1394#1 1399 1401#1 1400#1 932#0 932#1 1597 216#0 216#1 216#2 216#3 216#4 216#5 216#6 216#7 216#8 216#9 216#10 291#1 291#2 823#0 823#1 913 733#0 733#1 733#2 733#3 733#4 733#5 733#6 733#7 733#8 733#9 733#10 733#11 733#12 733#13 677 738 868#2 619#0 685#0 685#1 685#2 685#3 634 582 -693#2 -590#2 872#0 872#1 606#1 606#2"/>
    </vehicle>
    <vehicle id="other_1_207" type="delivery" depart="19802.00" departLane="best">
        <route edges="1495#2 1495#3 744#0 744#1 884#11 883#1 883#2 -740#2 -740#0 6#6 6#7 -8 204#4 194 198#3 198#0 154 317#0 317#1 71#0 71#1 -176 713 175 719 174 679 173 170 571#1 571#2 439#0 439#2 439#4 439#6 439#7 439#9 359#3 359#4 359#5 237#0 237#1 -353#2"/>
    </vehicle>
    <vehicle id="other_3_481" type="taxi" depart="19817.00" departLane="best">
        <route edges="916#1 456 -918 -1437 -1298#2 -1295#2 -1295#1 -1295#0 -1300#1 -1300#0 856#3 856#0 -468#6 -468#5 -468#4 -468#3 -468#2 -468#1 -468#0 1313#1 1423#0 1423#1 1423#2 1423#3 1423#4 1423#5 1423#6 1423#7 497#1 236 494#0 494#1 494#2 494#3 494#4 350#2 350#3 350#4 -349 -95#0 -520#2 -520#1 -520#0 -584#11 -584#10 -584#9 -584#8 -584#7 -584#6 -584#5 -584#4 632#0 632#1 632#2 632#3 -619#5 -619#4 -619#3"/>
    </vehicle>
    <vehicle id="other_2_1011" type="emergency" depart="19818.00" departLane="best">
        <route edges="-1428#2 -1428#1 -1428#0 1292 1301#0 1301#1 1260#1 1260#2 1260#3 1260#4 1313#1 1423#0 1423#1 1423#2 1423#3 1423#4 1423#5 1423#6 1423#7 497#1 236 494#0 494#1 494#2 494#3 494#4 350#2 350#3 350#4 -349 -95#0 -520#2 -520#1 -520#0 -584#11 -584#10 -584#9 -584#8 -584#7 -584#6 -584#5 -584#4 632#0 632#1 632#2 632#3 -619#5 -619#4 -619#3 -619#2 -619#1 -619#0 102 867#0 867#1 -733#13 -869#2 -869#1 -869#0 1499#1 1499#2 790#0 790#1 790#2 790#3 790#4 790#5 790#6 -821#1 -821#0"/>
        <stop parkingArea="152620" duration="43200.00"/>
    </vehicle>
    <vehicle id="other_2_1220" type="delivery" depart="19895.00" departLane="best">
        <route edges="-468#5 -468#4 -468#3 -468#2 -468#1 -468#0 1313#1 1423#0 1423#1 1423#2 1423#3 1423#4 1423#5 1423#6 1423#7 497#1 236 494#0 494#1 -502#2 -502#1 -502#0 -1321#5 -1321#4 -865#4"/>
    </vehicle>
    <vehicle id="other_2_816" type="trailer" depart="19925.00" departLane="best">
        <route edges="1339#0 1339#1 1339#2 1339#3 1337#4 939#0 939#1 565#1 565#2 565#3 565#4 565#5 1347#0 1347#1 1347#2 864 602 632#3 -619#5 -619#4 -619#3 -624#3 -624#2 -624#0 -925 -1502#3 -1502#2 -1502#1 -1502#0 1345#1 1345#3 1345#4 1345#5 1345#6 1345#7 1345#8 1387#0 1387#1 1383#0 1383#1 1383#2 1383#3 -1382#0 1386#1 1386#2 1386#3 1386#4 755#0 755#1 755#2"/>
    </vehicle>
    <vehicle id="other_1_299" type="taxi" depart="19981.00" departLane="best">
        <route edges="586#0 587#0 587#1 587#2 587#3 1496 595#0 595#1 595#2 595#3 595#4 585#0 585#1 585#2 -584#4 632#0 632#1 623#2 596 447 563#0 564#0 564#1 564#2 564#3"/>
    </vehicle>
    <vehicle id="other_2_352" type="trailer" depart="20019.00" departLane="best">
        <route edges="-564#1 -564#0 563#1 563#2 1346#0 1346#1 1346#2 1346#3 1347#0 1347#1 1347#2 864 602 632#3 621 622 574#1 574#2 -595#5 -595#4 -595#3 -595#2 -595#1 -595#0 588 571#1 571#2 571#3 571#4 587#3"/>
    </vehicle>
    <vehicle id="other_2_875" type="taxi" depart="20067.00" departLane="best">
        <route edges="923 -1502#3 -1506 -1354#17 -1354#16 -1354#15 -1354#14 -1354#13 -1354#12"/>
    </vehicle>
    <vehicle id="other_3_158" type="emergency" depart="20096.00" departLane="best">
        <route edges="1592#1 929#0 757 932#1 1597 216#0 216#1 216#2 216#3 216#4 216#5 216#6 216#7 216#8 -933#3 -933#2 -933#1 -933#0 -821#1 -821#0 294#0 294#1 294#2 861#0 861#1 861#2 313#1 193 204#3 204#4 194 198#3 198#0 154 317#0 317#1 71#0 -274#0 862#3 862#4 862#0 705#0 705#1 705#2 -219 1494#2 1497"/>
    </vehicle>
    <vehicle id="other_1_849" type="delivery" depart="20115.00" departLane="best">
        <route edges="-241#0 240#3 240#4 240#1 -564#6 -564#5 -564#4 -564#3 -564#2 -564#1 -564#0 563#1 563#2 1346#0 1346#1 1346#2 1346#3 1347#0 1347#1 1347#2 864 602 632#3 -619#5 394#0 394#1 394#2 394#3 394#4 614 603#3 615"/>
    </vehicle>
    <vehicle id="other_1_1190" type="taxi" depart="20116.00" departLane="best">
        <route edges="721 737#1 737#2 737#3 737#4 735#0 735#1 735#2 735#3 735#4 735#5 862#0 862#1 862#2 274#0 71#1 -176 713 175 719 174 679 173 169 98 586#0 586#1 250#2 -522#1 -522#0 499#1 499#2"/>
    </vehicle>
    <vehicle id="other_1_1164" type="taxi" depart="20128.00" departLane="best">
        <route edges="-824#0 294#1 -936#7 -936#6 -936#5 -936#4 -936#3 -936#2 -936#1 -936#0 -1418#9 -1418#8 -1418#7 -1418#6 -1418#5 -1418#3 -1418#2 -1418#1 816#1 816#2 907#0 907#1 907#2 -908 793#0 793#1 793#2 289#0 289#1 289#2"/>
    </vehicle>
    <vehicle id="other_1_1177" type="emergency" depart="20145.00" departLane="best">
        <route edges="1495#2 1495#3 744#0 744#1 884#11 883#1 883#2 -740#2 -740#0 6#6 6#7 -8 204#4 194 198#3 198#0 154 317#0 1503"/>
    </vehicle>
    <vehicle id="other_1_1202" type="emergency" depart="20214.00" departLane="best">
        <route edges="790#0 790#1 790#2 790#3 790#4 -751#6 -751#5 -751#4 -751#3 -751#2 -751#1 -751#0 -912#1 -912#0 -893#5 -893#4 -893#3 -893#2 -893#1 -893#0 868#0 868#1 868#2 619#0 619#1 619#2 619#3 619#4 619#5 621 622 574#1 574#2 -595#5 585#0 585#1 -581#6 -581#5 -581#4 -581#3"/>
    </vehicle>
    <vehicle id="other_2_468" type="delivery" depart="20221.00" departLane="best">
        <route edges="1418#27 -186 -1276 -185 -1419#1 -825 1400#1 932#0 932#1 1597 216#0 216#1 216#2 216#3 216#4 216#5 216#6 216#7 216#8 216#9 216#10 291#1 291#2 291#3 -811#1 -811#0 183 -812#1 -812#0 -1386#4 -1386#3 -1386#2 -1386#1 -1386#0 1382#1 1382#2 1382#3 1382#4 1382#5 1382#6 -134#0 -1364#3 1351#0 1351#1 1351#2 1351#3 1351#4 1351#5 1351#6 1351#7 1351#8 1351#9 -1265#2 -1265#1 -1265#0 -1356#2 -1356#0 1354#15 1354#16"/>
    </vehicle>
    <vehicle id="other_2_960" type="taxi" depart="20244.00" departLane="best">
        <route edges="416#0 416#1 240#4 240#1 -564#6 -564#5 -564#4 -564#3 -564#2 -564#1 -564#0 563#1 563#2 1346#0 1346#1 1346#2 1346#3 1347#0 1347#1 1347#2 864 602 632#3 -619#5 -619#4 -619#3 -619#2 -619#1 -619#0 102 867#0 867#1 -733#13 -869#2 -869#1"/>
    </vehicle>
    <vehicle id="other_2_1137" type="taxi" depart="20246.00" departLane="best">
        <route edges="-258#0 1382#6 -134#0 -1364#3 1351#0 1351#1 1351#2 1351#3 1351#4 1351#5 1351#6 1351#7 1351#8 1351#9 1265#4 922#0 922#2 922#3 922#4 922#5 922#6 922#7 922#8 1340#1 855#4 855#0 -1315#14 -1315#13 -1315#12 -1315#11 -1315#10 -1315#9 -1315#8 -854 1315#7 1315#8 1315#9 1315#10 1315#11"/>
    </vehicle>
    <vehicle id="other_2_642" type="delivery" depart="20263.00" departLane="best">