<?xml version="1.0" encoding="UTF-8"?>

<!--
    Monaco SUMO Traffic (MoST) Scenario
    Copyright (C) 2019
    Lara CODECA

    This program is free software: you can redistribute it and/or modify
    it under the terms of the GNU General Public License as published by
    the Free Software Foundation, either version 3 of the License, or
    (at your option) any later version.

    This program is distributed in the hope that it will be useful,
    but WITHOUT ANY WARRANTY; without even the implied warranty of
    MERCHANTABILITY or FITNESS FOR A PARTICULAR PURPOSE.  See the
    GNU General Public License for more details.

    You should have received a copy of the GNU General Public License
    along with this program.  If not, see <http://www.gnu.org/licenses/>.
-->

<routes xmlns:xsi="http://www.w3.org/2001/XMLSchema-instance" xsi:noNamespaceSchemaLocation="http://sumo.dlr.de/xsd/routes_file.xsd"> 
    <vehicle id="special_3-1_245" type="special" depart="18036" departLane="best" arrivalPos="random">
        <route edges="153459#1 153458#1 153005#0 153005#1 152235 153338 153641 152330#0 152330#1 152330#2 152330#3 152330#4 152330#5 152166 -153006#3 -153006#2 -153006#1 -153006#0 -152899#1 -152899#0 152402#0 152402#1 152402#2 152938#0 152938#1 152938#2 152419#1 152308 152318#3 152318#4 152309 152312#3 152312#0 152271 152423 152206 -152385 -152293 152794 152292 152800 152291 152761 152290 152287 152654#1 152654#2 152534#0 152534#2"/>
    </vehicle>
    <vehicle id="special_1-2_218" type="special" depart="18045" departLane="best" arrivalPos="random">
        <route edges="-152667#3 -152667#2 -152667#1 152702#0 152702#1 -152939#5 -152767#3 -152767#2 -152780 152701#3 152701#4 152701#5 152703 152705#0 152705#1 152175 152678 152542 152647#0 152648#0 152648#1 152648#2 152648#3 152648#4 152648#5 152648#6"/>
    </vehicle>
    <vehicle id="special_1-2_202" type="special" depart="18076" departLane="best" arrivalPos="random">
        <route edges="152767#0 152767#1 152767#2 152767#3 152939#5 -152702#1 -152702#0 152667#1 152667#2 152667#3 152667#4 152667#5 152667#6 152667#7 152667#8 152667#9 152667#10 152667#11 152605#1"/>
    </vehicle>
    <vehicle id="special_2-1_263" type="special" depart="18117" departLane="best" arrivalPos="random">
        <route edges="152543 152547 -152992 -153492 -153357#2 -153354#2 -153354#1 -153354#0 -153359#1 -153359#0 -153323#4 -153323#3 -153323#2 -153323#1 -153323#0 -153365#4 -153365#3 -153365#1 -153365#0 152346#1 152221 152585#1 152350 152582#0 152582#1 152582#2 152582#3 152582#4 152454#2 152454#3 152454#4 -152453 -152223 -152169 -152605#2 -152605#1 -152605#0 -152667#10 -152667#9 -152667#8 -152667#7 -152667#6 -152667#5 -152667#4 -152667#3 -152667#2 -152667#1 152702#0 152702#1 -152775#5 -152775#4 -152775#3 -152775#2 -152775#0 152810#0 152810#1 152810#2 152820 152960#1 152805#0 152805#1 152805#2 -152766#1 -152766#0"/>
    </vehicle>
    <vehicle id="special_1-2_13" type="special" depart="18159" departLane="best" arrivalPos="random">
        <route edges="153335#1 153335#2 -153337 153337 -153335#2 -153335#1 -153335#0 153444#2 153444#3 153444#4 153444#5 152892#1 -152300 152891#0 152891#1 152399#0 152399#1 152399#2 152901#0 152901#1 152320 152403 152418 152270 152419#0 152419#1 152308 152318#3 152318#4 152318#1 152317 -152898#2 -152898#1 -153559#2"/>
    </vehicle>
    <vehicle id="special_1-1_87" type="special" depart="18190" departLane="best" arrivalPos="random">
        <route edges="152605#1 152605#2 152169 152223 152453 152454#1 152454#2 152454#3 152454#4 -152453 -152223 -152169 -152605#2 -152605#1 -152605#0 -152667#10 -152667#9 -152667#8 -152667#7 -152667#6 -152667#5 -152667#4 152714 152174#0 152174#1 -152701#5 -152701#4 -152701#3 -152701#2 -152701#1 -152701#0 152229 152943#0 152943#1 -152814#11 -152814#10 -152814#9 -152814#8 -152814#7 -152814#6 -152814#5 -152814#4 -152814#3 -152836#6 -152836#5 -152836#4"/>
    </vehicle>
    <vehicle id="special_3-1_18" type="special" depart="18194" departLane="best" arrivalPos="random">
        <route edges="153459#1 153458#1 153005#0 153005#1 152235 153338 153641 152330#0 152330#1 152330#2 152330#3 152330#4 152330#5 152166 152168#0 152168#1 152399#1 152399#2 152901#0 152901#1 152988 152814#0 152814#1 152814#2 152814#3 152814#4 152814#5 152814#6 152814#7 152814#8 152814#9 152814#10 152814#11 152759 152230 152785#0 152819 152944#2 152234 152701#0 152701#1 152701#2 152701#3 152701#4 152701#5 152703 152705#0 152705#1 152175 152678 152542 152647#0 152648#0 152648#1 152648#2 152648#3 152648#4 152648#5 152648#6 152353#2 152353#3 -152513#1"/>
    </vehicle>
    <vehicle id="special_1-2_223" type="special" depart="18219" departLane="best" arrivalPos="random">
        <route edges="-152767#3 -152767#2 -152767#1 -152767#0 -152701#0 152229 152943#0 152943#1 -152814#11 -152814#10 -152814#9 -152814#8 -152812#5 -152812#4 -152812#3 -152812#2 -152812#1 -152812#0 -153441#0 -153445#1 -153445#0"/>
    </vehicle>
    <vehicle id="special_1-3_178" type="special" depart="18300" departLane="best" arrivalPos="random">
        <route edges="153639 152874#4 -152883#2 -152883#1 -152883#0 152975#1 -153560 152898#0 152898#1 152898#2 -152299 152857 152137#3 152137#4 152137#5 152137#6 152137#7 -152139 152318#4 152318#1 152318#2 -152308 152281 152530 -152330#5 -152330#4 -152330#3 -152330#2 -152330#1 -152330#0 153637 152405 -153007#6 -153456#6 -153456#5 -153456#4 -153456#3 -153456#2 -153456#1 -153456#0 153451#5 153435#0 153435#1 153435#2 153435#3 152416#1 152413#0 152413#1 152413#2 152413#3 152252 153395 152253 -153436"/>
    </vehicle>
    <vehicle id="special_1-3_34" type="special" depart="18369" departLane="best" arrivalPos="random">
        <route edges="152770 -152650#1 152672#1 152672#2 -152775#0 152810#0 152810#1 152810#2 152820 152960#1 152960#2 152960#3 152960#4 152305 152312#0 152312#1 152312#2 -152309 152318#1 152318#2 -152308 152281 152530 -152330#5 -152330#4 -152330#3 -152330#2 -152330#1 -152330#0 153637 152405 -153007#6 -153456#6 -153456#5 -153456#4 -153456#3 -153456#2 -153456#1 -153456#0 153451#5 153435#0 153435#1 153435#2 153435#3 152416#1 152413#0 152413#1 -152756#2 152645"/>
    </vehicle>
    <vehicle id="special_2-1_204" type="special" depart="18390" departLane="best" arrivalPos="random">
        <route edges="-152812#0 -153441#0 -153445#1 -153445#0 153003#0 153003#1 153004 -152971#5 -152971#4 -152971#3 -152971#2 -152971#1 -152971#0 152708#1 -152706#2 152707#0 152707#1"/>
    </vehicle>
    <vehicle id="special_2-1_281" type="special" depart="18424" departLane="best" arrivalPos="random">
        <route edges="152648#5 153398#0 153398#1 153398#2 153398#3 153396#4 153011#0 153011#1 152649#1 152649#2 152649#3 152649#4 152649#5 153406#0 153406#1 153406#2 152940 152684 152174#1 -152701#5 -152701#4 -152701#3 -152701#2 -152701#1 -152701#0 152229 152943#0 152793 152785#2 152167 152969#0 152969#1 152969#2 152969#3 -152795#1 152808 152959#3 152959#4 -152817#3 -152817#2 -152817#1 -152817#0 -152776 152860 152862 -152889"/>
    </vehicle>
    <vehicle id="special_1-1_121" type="special" depart="18433" departLane="best" arrivalPos="random">
        <route edges="152163#0 152163#1 152397#0 152397#1 152397#2 -152163#1 -152163#0 -152873#2 -152873#1 -152873#0 152983 152982#3 -152900#1 -152887#2 -153558"/>
    </vehicle>
    <vehicle id="special_3-1_88" type="special" depart="18446" departLane="best" arrivalPos="random">
        <route edges="153395 152253 -153436 153436 -152253 -153395 -152252 -152413#3 -152413#2 -152413#1 -152413#0 152412 152444#1 -153435#3 -153435#2 -153435#1 -153435#0 153451#6 153451#7 153433#1 152734#0 -152736#2 -152736#1 -152736#0 153391#0 153391#1 153392#1 153387#1 153387#2 -152628#1 -152628#0 -153384#1 -153384#0 -152177 -152176#2 -152176#1 -152176#0 153383#1 153383#2 153383#3 153383#4 153383#5 -152246 153369#0 153369#1 152245 152565 152307 -153372#4 -153372#3 -153372#2 153480#0 153480#1 153480#2 153480#3 153480#4 153480#5 153480#6 153480#7 152216 -153378#2 -153378#1 152584"/>
    </vehicle>
    <vehicle id="special_1-1_217" type="special" depart="18458" departLane="best" arrivalPos="random">
        <route edges="152865 -152803 -152799 -152760 -152763 152776 152817#0 152817#1 152817#2 152817#3 152959#5 152779 152818#0 152818#1 152818#2 152818#3 152816#0 152816#1 152816#2 152816#3 152816#4 152816#5 -152810#2 -152810#1 -152810#0 152775#0 -152381 -152716 -152767#3 -152767#2 -152767#1 -152767#0 -152701#0 152229 152943#0 152943#1 -152814#11 -152945#2 -152807"/>
    </vehicle>
    <vehicle id="special_1-2_290" type="special" depart="18471" departLane="best" arrivalPos="random">
        <route edges="152289 152662 152654#2 152654#3 152654#4 152670#3 152670#4 152282 -152290 -152761 -152291 -152800 -152292 -152794 152293 152385 -152206 152461 152311 152312#2 -152309 152318#1 152318#2 -152308 152281 152530 -152330#5 -152330#4 152407 -152407 152330#4 152330#5 152166 -153006#3"/>
    </vehicle>
    <vehicle id="special_3-1_50" type="special" depart="18483" departLane="best" arrivalPos="random">
        <route edges="-153458#0 -153459#0 -152256 153460 -153460 152256 153459#0 153459#1 153458#1 153005#0 153005#1 152235 153338 153641 152330#0 152330#1 152330#2 152330#3 152330#4 152330#5 152166 152168#0 152168#1 152399#1 152399#2 152901#0 152901#1 152320 152403 152132 152421 152895#2 152982#0 152982#1 152982#2 -152983 152873#0 152873#1 152873#2 152873#3 152298 -152646 152398#2 152398#3 152858"/>
    </vehicle>
    <vehicle id="special_1-2_121" type="special" depart="18495" departLane="best" arrivalPos="random">
        <route edges="152593 152590#2 -152582#1 -152582#0 152576 152219 153365#0 153365#1 153365#3 153365#4 153323#0 153323#1 153323#2 153323#3 153323#4 153359#0 153359#1 153354#0 153354#1 153354#2 153357#2 -152957 -152283 152554 153656 152283 -152555"/>
    </vehicle>
    <vehicle id="special_1-2_245" type="special" depart="18512" departLane="best" arrivalPos="random">
        <route edges="152875#0 152875#1 152875#2 -152398#4 -152398#3 -152398#2 152646 -152298 -152873#3 -152873#2 -152873#1 -152873#0 152983 152982#3 152982#4 152973 -152895#1 153476#1 153476#2 153476#3 153476#5 153476#6 153476#7 153476#8 153476#9 153476#10 153476#11 -153462#5 -153462#4 -153462#3 -153462#2 -153465#2 -153465#1 152914 -152914 153465#1 153465#2"/>
    </vehicle>
    <vehicle id="special_2-1_16" type="special" depart="18518" departLane="best" arrivalPos="random">
        <route edges="152582#4 152454#2 152454#3 152606#0 152606#1 -152617 -152610 152602 152607 152363#3 152363#0 152664#0"/>
    </vehicle>
    <vehicle id="special_1-1_54" type="special" depart="18520" departLane="best" arrivalPos="random">
        <route edges="-152708#1 -152708#0 152971#1 152971#2 152971#3 152971#4 152971#5 152813 -152814#8 -152814#7 -152814#6 -152814#5 -152814#4 -152814#3 -152814#2 -152814#1 -152814#0 152989 -152901#1 -152901#0 152399#3 152399#0 -152168#1 -152168#0 -152166 -152330#5 -152330#4 152407 -152407 152330#4 152330#5 152166 -153006#3 -153006#2 -153006#1 -153006#0"/>
    </vehicle>
    <vehicle id="special_1-2_148" type="special" depart="18603" departLane="best" arrivalPos="random">
        <route edges="-152660#0 152677#3 152677#4 152677#5 152650#0 152672#1 152672#2 -152775#0 152810#0 152810#1 152810#2 152820 152960#1 152960#2 152960#3 152960#4 152305 152312#0 152312#1 152312#2 -152309 152318#1 152318#2 152318#3 152139 152137#0 152138 152968 -152270 -152418 -152958 153476#1 -153450 -153453#1 -153453#0 153453#0 153453#1"/>
    </vehicle>
    <vehicle id="special_3-1_104" type="special" depart="18631" departLane="best" arrivalPos="random">
        <route edges="-152903 153458#1 153005#0 153005#1 152235 153338 153641 152330#0 152330#1 152330#2 152330#3 152330#4 152330#5 152166 -153006#3 -153006#2 -153006#1 -153006#0 -152899#1 -152899#0 152402#0 152402#1 152402#2 152938#0 152938#1 152938#2 152419#1 152308 152318#3 152318#4 152309 152312#3 -152305 -152831#2 -152831#1 -152831#0 152816#4 -152811 152386#0"/>
    </vehicle>
    <vehicle id="special_1-2_25" type="special" depart="18657" departLane="best" arrivalPos="random">
        <route edges="152647#0 152647#1 152647#2 153405#0 153405#1 153405#2 153405#3 153406#0 153406#1 153406#2 152940 152684 152174#1 -152701#5 -152701#4 -152701#3 -152706#3 -152706#2 -152706#1 -152706#0 -152999 -152997 -153413#16 -153413#15 -153413#14 153415#0 153415#1 153331#0 153331#1 153331#2"/>
    </vehicle>
    <vehicle id="special_1-1_125" type="special" depart="18699" departLane="best" arrivalPos="random">
        <route edges="152775#0 -152381 -152716 -152767#3 -152767#2 -152767#1 -152767#0 -152701#0 152229 152943#0 152943#1 -152814#11 -152814#10 -152814#9 -152814#8 -152814#7 -152814#6 -152814#5 -152814#4 -152814#3 -152836#6 -152836#5 -152836#4"/>
    </vehicle>
    <vehicle id="special_2-1_211" type="special" depart="18720" departLane="best" arrivalPos="random">
        <route edges="152602 -152170#1 -152170#0 -152224 152587#0 152587#1 152613 -152613 -152587#1 -152587#0 152224 152170#0 152170#1 -152602 152169 152223 152453 152454#1"/>
    </vehicle>
    <vehicle id="special_1-3_109" type="special" depart="18722" departLane="best" arrivalPos="random">
        <route edges="152703 152704 152702#0 152702#1 -152775#5 -152775#4 -152775#3 -152775#2 -152775#0 152810#0 152810#1 152810#2 152820 152960#1 152960#2 152960#3 152960#4 152305 152312#0 152312#1 152312#2 -152309 152318#1 152318#2 -152308 152281 152530 -152330#5 -152330#4 -152330#3 -152330#2 -152330#1 -152330#0 153637 153634#1 153636#1 153002#0 153002#1 -153458#1 152903"/>
    </vehicle>
    <vehicle id="special_1-3_158" type="special" depart="18768" departLane="best" arrivalPos="random">
        <route edges="-152666 -152668#0 152677#5 152650#0 152672#1 152672#2 -152775#0 152810#0 152810#1 152810#2 152820 152960#1 152960#2 152960#3 152960#4 152305 152312#0 152312#1 152312#2 -152309 152318#1 152318#2 -152308 152281 152530 -152330#5 -152330#4 -152330#3 -152330#2 -152330#1 -152330#0 153637 153634#1 153636#1 153002#0 153002#1 -153458#1 -153458#0 -153459#0 -152256 153460 -153460 152256 153459#0 153459#1"/>
    </vehicle>
    <vehicle id="special_2-1_56" type="special" depart="18799" departLane="best" arrivalPos="random">
        <route edges="-153006#0 -152899#1 -152899#0 152402#0 152402#1 152402#2 152938#0 152938#1 152938#2 152419#1 152308 152318#3 152139 152137#0 152137#1 152137#2 152137#3 152137#4 152137#5 152821#0 152826 152818#2 152818#3 152389 152468 152296 153640 153639"/>
    </vehicle>
    <vehicle id="special_2-1_53" type="special" depart="18816" departLane="best" arrivalPos="random">
        <route edges="152912#4 152912#5 152912#6 152912#8 152982#1 152982#2 152982#3 152982#4 152973 -152895#1 -153476#0 152418 152270 152419#0 152419#1 152281 152530 -152330#5 -152330#4 152407 -152407 152330#4 152330#5 152166 152168#0 152168#1 152399#1 152399#2 152901#0 152901#1 152988"/>
    </vehicle>
    <vehicle id="special_3-1_137" type="special" depart="18821" departLane="best" arrivalPos="random">
        <route edges="152903 153477#1 152302 153342 152303 -153476#26 -153476#25 -153476#24 -153476#23 -153476#22 -153476#20 -153476#19 -153476#18 -153476#17 -153476#16 -153476#15 -153476#14 -153476#13 -153476#12 -153476#11 -153476#10 -153476#9 -153476#8 -153476#7 -153476#6 -153476#5 -153476#3 -153476#2 -153476#1 -153476#0 152418 152270 152419#0 152419#1 152308 152318#3 152318#4 152309 152312#3 -152305 -152831#2 -152831#1 -152831#0 152816#4 152816#5 -152810#2 -152810#1 -152810#0 152775#0 152775#2 152775#3 152775#4 152775#5 -152702#1 -152702#0 152667#1 152667#2 152667#3"/>
    </vehicle>
    <vehicle id="special_1-2_192" type="special" depart="18837" departLane="best" arrivalPos="random">
        <route edges="-152861 -152860 152776 152817#0 152817#1 152817#2 152817#3 152959#5 152779 152818#0 152818#1 152818#2 152818#3 152816#0 152816#1 152816#2 152816#3 152816#4 152816#5 -152810#2 -152810#1 -152810#0 152775#0 152775#2 152775#3 152775#4 152775#5 -152702#1 -152702#0 152667#1 152667#2 152667#3 152667#4 152667#5 152667#6 152667#7 152667#8 152667#9 152667#10 152667#11 152605#1 152605#2 152169 152223 152453 152454#1 -152582#4 -152582#3 -152582#2 -152582#1 -152582#0 152576 152219 152346#1 152221 -153480#7 -153480#6 -153480#5 -153480#4 -153480#3 -153480#2 -153480#1 -153480#0 -153372#1 -153372#0 153366#0 153366#1"/>
    </vehicle>
    <vehicle id="special_3-1_39" type="special" depart="18848" departLane="best" arrivalPos="random">
        <route edges="-153457 153452#1 153452#2 153451#1 153451#2 153451#3 153451#4 153456#0 153456#1 153456#2 153456#3 153456#4 153456#5 153456#6 153007#6 152406 153636#1 153002#0 152838 153005#1 152235 153338 153641 152330#0 152330#1 152330#2 152330#3 152330#4 152330#5 152166 -153006#3 -153006#2 -153006#1 -153006#0 152899#2 -152870#4 -152832#6 -152832#5 -152832#4 -152832#3 -152832#2 -152832#1 -152832#0 -152987#1 -152987#0 -152969#3 -152969#2 -152969#1 -152969#0 -152167"/>
    </vehicle>
    <vehicle id="special_2-1_93" type="special" depart="18864" departLane="best" arrivalPos="random">
        <route edges="152814#7 152814#8 152814#9 152814#10 152814#11 152759 152230 152785#0 152785#1 152785#2 152167 152969#0 152969#1 152969#2 152969#3 -152795#1 152808 152959#3 152959#4 -152817#3 -152817#2 -152817#1 -152817#0 -152776 152860 152862 -152889 152885 152884#0 152884#1 152881 152882 152942 152880#1 152880#2 152877 152869 152863"/>
    </vehicle>
    <vehicle id="special_3-1_59" type="special" depart="18872" departLane="best" arrivalPos="random">
        <route edges="-152927 -152304 -153478 153478 152304 152927 152257 153477#0 153477#1 152302 153342 152303 -153476#26 -153476#25 -153476#24 -153476#23 -153476#22 -153476#20 -153476#19 -153476#18 -153476#17 -153476#16 -153476#15 -153476#14 -153476#13 -153476#12 -153476#11 -153476#10 153008#0 153008#1 153008#2 153008#3 153008#4 153008#5 153008#6 153008#7 152402#2 152402#3 152899#0 152899#1 152899#2 -152870#4 -152832#6 -152832#5 -152832#4 152823#0 152823#1"/>
    </vehicle>
    <vehicle id="special_2-1_158" type="special" depart="18877" departLane="best" arrivalPos="random">
        <route edges="152626#1 152626#2 -153490#6 153387#0 153387#1 153387#2 -152628#1 -152628#0 -153384#1 -153384#0 -152177 -152176#2 -152176#1 -152176#0 -153383#0 -152250 -153385#1 -153385#0 -152251 -153412#5 -153329#5 -153329#4 -153331#11 -153331#10 -153331#9 -153331#8 -153331#7 -153331#6 -153331#5 -153331#4 -153331#2 -153331#1 -153331#0 -153415#1 -153415#0 153413#14 153413#15 153413#16 152997 152999 152706#0 152706#1 152706#2 152706#3 -152701#2 -152701#1 -152701#0 152229 152943#0 152793 152785#2 152167 152969#0 152969#1 152969#2 152969#3 -152795#1 152824#0 152824#1 152137#7 152137#0 152137#1 152137#2 -152857 152299 -152898#2 -152898#1 -152898#0 153560 152975#2 152975#3 152975#4 152883#0"/>
    </vehicle>
    <vehicle id="special_3-1_74" type="special" depart="18888" departLane="best" arrivalPos="random">
        <route edges="-153394#2 -153394#1 -153394#0 -152413#2 -152413#1 -152413#0 152412 152444#1 -153435#3 -153435#2 -153435#1 -153435#0 153451#6 153451#7 153433#1 152734#0 -152736#2 -152736#1 -152736#0 153391#0 153391#1 153392#1 153387#1 153387#2 -152628#1 -152628#0 -153384#1 -153384#0 -152177 -152176#2 -152176#1 -152176#0 153383#1 153383#2 153383#3 153383#4 153383#5 -152246 153369#0 153369#1 152245 152565 152307 -153372#4 -153372#3 -153372#2 153480#0 153480#1 153480#2 153480#3 153480#4 153480#5 153480#6 153480#7 152585#1 152350 152582#0 152582#1 152582#2 152582#3 152582#4 152454#2 152454#3 152454#4 152454#1"/>
    </vehicle>
    <vehicle id="special_1-1_16" type="special" depart="18895" departLane="best" arrivalPos="random">
        <route edges="-152814#3 -152814#2 152896 152814#1 152814#2 152814#3 152814#4 152814#5 152814#6 152814#7 152814#8 152814#9 152814#10 152814#11 152759 152230 152785#0 152819 152944#2 152234 152701#0 152767#0 152767#1 152767#2 -152546 -152939#2 -152939#1"/>
    </vehicle>
    <vehicle id="special_1-3_174" type="special" depart="18906" departLane="best" arrivalPos="random">
        <route edges="152534#2 -152361 152361 152535#4 152535#6 152654#4 152670#3 152670#4 152282 -152290 -152761 -152291 -152800 -152292 -152794 152293 152385 -152206 152461 152311 152312#2 -152309 152318#1 152318#2 -152308 152281 152530 -152330#5 -152330#4 -152330#3 -152330#2 -152330#1 -152330#0 153637 153634#1 153636#1 153002#0 153002#1 -153458#1 -153458#0 -153459#0 -152256 153460 -153460 152256 153459#0 153459#1"/>
    </vehicle>
    <vehicle id="special_1-2_142" type="special" depart="18914" departLane="best" arrivalPos="random">
        <route edges="-152871 152162 -152884#0 -152885 152889 -152861 -152860 152776 152817#0 152817#1 152817#2 152817#3 152959#5 152779 152818#0 152818#1 152818#2 152818#3 152816#0 152816#1 152816#2 152816#3 152816#4 152816#5 -152810#2 -152810#1 -152810#0 152775#0 -152381 -152716 -152767#3 -152767#2 -152780 152701#3 152701#4 152701#5 152703 152705#0 152705#1 152175 152678 152542 152647#0 152647#1 152647#2 153396#0 153396#1 153396#2"/>
    </vehicle>
    <vehicle id="special_1-1_141" type="special" depart="18933" departLane="best" arrivalPos="random">
        <route edges="-152648#0 152647#1 -153401 -153400 152648#1 152648#2 152648#3 152648#4 152648#5 152648#6 152353#2 152354#0 152354#1 -152652#0 152667#11 152605#1 152605#2 152169 152223 152453 152454#1 -152582#4"/>
    </vehicle>
    <vehicle id="special_1-2_265" type="special" depart="18972" departLane="best" arrivalPos="random">
        <route edges="-152814#3 -152836#6 -152836#5 -152836#4 -152836#3 -152836#2 -152836#1 -152836#0 -153444#4 -153444#3 -153444#2 153335#0 153335#1 153335#2 153335#3 153335#4 153335#5 153335#6 153335#7 -153327#12 -153327#11 -153327#9 -153327#8 -153327#7 -153327#6 -153327#5 -153327#4 -153327#3 -153327#2 -153327#1 -153327#0 153392#0 153392#1 -153387#0 -153490#5 152478#0 152478#1 -152478#1 -152478#0 153490#5"/>
    </vehicle>
    <vehicle id="special_1-1_72" type="special" depart="19015" departLane="best" arrivalPos="random">
        <route edges="152859 152773 152772 -152763 152776 152817#0 152817#1 152817#2 152817#3 152959#5 152779 152818#0 152818#1 152818#2 152818#3 152816#0 152816#1 152816#2 152816#3 152816#4 152816#5 -152810#2 -152810#1 -152810#0 152775#0 -152672#2 -152672#1 -152650#0 -152677#5 152668#0 152668#1 152668#2"/>
    </vehicle>
    <vehicle id="special_3-1_98" type="special" depart="19030" departLane="best" arrivalPos="random">
        <route edges="152903 153477#1 152302 153342 152303 -153476#26 -153476#25 -153476#24 -153476#23 -153476#22 -153476#20 -153476#19 -153476#18 -153476#17 -153476#16 -153476#15 -153476#14 -153476#13 -153476#12 -153476#11 -153476#10 153008#0 153008#1 153008#2 153008#3 153008#4 153008#5 153008#6 153008#7 152402#2 152402#3 152899#0 152899#1 152899#2 -152870#4 -152870#3 -152870#2 -152870#1 -152870#0 153552#3 153552#0 152945#0 152945#1 152945#2 152814#11 152759 152230 152785#0 152819 152944#2 152234 152701#0 152701#1 152701#2"/>
    </vehicle>
    <vehicle id="special_1-3_86" type="special" depart="19031" departLane="best" arrivalPos="random">
        <route edges="-152648#2 -152648#1 -152648#0 152647#1 152647#2 153405#0 153405#1 153405#2 153405#3 153406#0 153406#1 153406#2 152940 152684 152174#1 -152701#5 -152701#4 -152701#3 -152701#2 -152701#1 -152701#0 152229 152943#0 152943#1 -152814#11 -152814#10 -152814#9 -152814#8 -152814#7 -152814#6 -152814#5 -152814#4 -152814#3 -152814#2 -152814#1 -152814#0 152989 -152901#1 -152901#0 152399#3 152399#0 -152168#1 -152168#0 -152166 -152330#5 -152330#4 -152330#3 -152330#2 -152330#1 -152330#0 153637 153634#1 153636#1 153002#0 153002#1 -153458#1 -153458#0 -153459#0 -152256 153460 -153460 152256 153459#0 153459#1"/>
    </vehicle>
    <vehicle id="special_2-1_119" type="special" depart="19036" departLane="best" arrivalPos="random">
        <route edges="-152992 -153492 -153357#2 -153354#2 -153354#1 -153354#0 -153359#1 -153359#0 -153323#4 -153323#3 -153323#2 -153323#1 -153323#0 -153365#4 -153365#3 -153365#1 -153365#0 152346#1 152221 152585#1 152350 152582#0 152582#1 152582#2 152582#3 152582#4 152454#2 152454#3 152454#4 -152453 -152223 -152169 -152605#2 -152605#1 -152605#0 -152667#10 -152667#9 -152667#8 -152667#7 -152667#6 -152667#5 -152667#4 -152667#3 -152667#2 -152667#1 152702#0 152702#1 -152775#5 -152775#4 -152775#3 -152775#2 -152775#0 152810#0 152810#1 152810#2 152820 152960#1 152960#2 152960#3 152960#4 152960#5 152960#6 152960#7 152960#8 152960#10 152959#2 152959#3 152959#4 -152817#3 -152817#2 -152817#1 -152817#0 -152776 152763 152760 152799 152803 -152806 -152788"/>
    </vehicle>
    <vehicle id="special_1-2_95" type="special" depart="19075" departLane="best" arrivalPos="random">
        <route edges="-152298 -152873#3 -152873#2 152396#1 152396#2 152458#2 152458#3 -152451 152874#1 152874#2 153638 152297#0 152297#0-AddedOffRampEdge 152297#1 152967 152816#2 152816#3 152816#4 152816#5 -152810#2 -152810#1 -152810#0 152775#0 -152381 -152716 -152767#3 -152767#2 -152780 -152706#3 -152706#2 -152706#1 -152706#0 -152999 -152997 -153413#16 -153413#15 -153413#14 -153413#13 -153413#12 -153413#11 -153413#10 -153413#9 -153413#8 -153413#7 -153413#6 -153413#5 -153413#4 -153413#3 -153413#1 -153413#0 153399#0 153399#1 152933#4 152933#0 -153374#14 -153374#13 -153374#12 -153374#11 -153374#10 -153374#9 -153374#8 -153374#7 -153374#6 -153374#5 -153374#4 -153374#3 -153374#2 -153374#1 -153023#3 -153023#2 152599 -152352#1 -152352#0"/>
    </vehicle>
    <vehicle id="special_2-1_138" type="special" depart="19079" departLane="best" arrivalPos="random">
        <route edges="152902#0 152902#1 152902#2 152902#3 152902#4 152902#5 152902#6 152902#7 152902#8 -152902#8 -152902#7 -152902#6 -152902#5 -152902#4 -152902#3 -152902#2 -152902#1 -152902#0 152402#1 152402#2 152938#0 152938#1 152938#2 152419#1 152308 152318#3 152318#4 152309 152312#3 152312#0 152271 152423 152206 -152385 -152293 152794 152292 152800 152291 152761 152290 152287 152654#1 152654#2 152534#0 152534#2"/>
    </vehicle>
    <vehicle id="special_1-3_209" type="special" depart="19168" departLane="best" arrivalPos="random">
        <route edges="152937#4 -152606#6 -152606#5 -152606#4 -152606#3 -152606#2 -152617 -152610 152602 152607 152363#3 152363#0 152363#1 -152669#1 -152669#0 -152226 -152290 -152761 -152291 -152800 -152292 -152794 152293 152385 -152206 152461 152311 152312#2 -152309 152318#1 152318#2 -152308 152281 152530 -152330#5 -152330#4 -152330#3 -152330#2 -152330#1 -152330#0 153637 153634#1 153636#1 153002#0 153002#1 -153458#1 -153458#0 -153459#0 -152256 153460 -153460 152256 153459#0 153459#1"/>
    </vehicle>
    <vehicle id="special_1-1_298" type="special" depart="19172" departLane="best" arrivalPos="random">
        <route edges="152983 152982#3 -152900#1 -152887#2 -152887#1 -152887#0 152898#0 152898#1 152898#2 -152299 152857 152137#3 152137#4 152137#5 152821#0 152821#1 152821#2 152959#4 -152817#3 -152817#2 -152817#1 -152817#0 -152776 152763 152760 152799 152803 -152865 -152947 152888 152876 152859"/>
    </vehicle>
    <vehicle id="special_2-1_240" type="special" depart="19206" departLane="best" arrivalPos="random">
        <route edges="152551 152994#2 -153358#0 -153359#1 -153359#0 -153323#4 -153323#3 -153323#2 -153323#1 -153323#0 -153365#4 -153365#3 -153365#1 -153365#0 152346#1 152221 152216 -153378#2 -153378#1 152584"/>
    </vehicle>
    <vehicle id="special_3-1_82" type="special" depart="19209" departLane="best" arrivalPos="random">
        <route edges="152413#3 152252 153395 152253 -153436 153436 -152253 -153395 -152252 -152413#3 -152413#2 -152413#1 -152413#0 152412 152444#1 -153435#3 -153435#2 -153435#1 -153435#0 153451#6 153451#7 153433#1 152734#0 -152736#2 -152736#1 -152736#0 153391#0 153391#1 153392#1 153387#1 153387#2 -152628#1 -152628#0 -153384#1 -153384#0 -152177 -152176#2 -152176#1 -152176#0 153383#1 153383#2 153383#3 153383#4 153383#5 -152246 153369#0 153369#1 152245 152565 152307 -153372#4 -153372#3 -153372#2 153480#0 153480#1 153480#2 153480#3 153480#4 153480#5 153480#6 153480#7 152216 -153378#2 -153378#1 -153378#0 152218 -152578#1 152172 152173 153375 152165#1 152535#0 152535#1 152603 152604 152534#5 152534#6"/>
    </vehicle>
    <vehicle id="special_2-1_153" type="special" depart="19213" departLane="best" arrivalPos="random">
        <route edges="-153445#1 -153445#0 -153404#8 -153404#7 -153404#6 -153404#5 -153404#4 -153404#3 -153404#2 -153404#1 -153404#0 -152707#0 152706#2 152706#3 152701#3 152701#4 152701#5 152703 152705#0 152705#1 152175 152678 152542 152647#0 152648#0 152648#1 152648#2 152648#3 152648#4 152648#5 152648#6 152353#2 152353#3 -152513#1 -152606#9 -152606#8 -152606#7 -152937#4 -152595#1 -152595#0 152595#0 152595#1 152937#4"/>
    </vehicle>
    <vehicle id="special_2-1_285" type="special" depart="19222" departLane="best" arrivalPos="random">
        <route edges="-153485#3 -153485#2 -153485#1 -153485#0 153351 152241 -153362#1 153360#0 153360#1 153326#1 153326#2 153326#3 153326#4 153372#1 153480#0 153480#1 153480#2 153480#3 153480#4 153480#5 153480#6 153480#7 152216 -153378#2 -153378#1 -153378#0 152218 -152578#1 152345#0 152345#1 -152579#1 -152579#0 -152220 -152587#3 -152587#2 -152587#1 -152587#0 152224 152170#0 152170#1 152607 152363#3 152363#0 152363#1 -152669#1 152670#0 152670#1 152670#2 152670#3 152670#4"/>
    </vehicle>
    <vehicle id="special_3-1_285" type="special" depart="19230" departLane="best" arrivalPos="random">
        <route edges="152413#3 152252 153395 152253 -153436 153436 -152253 -153395 -152252 -152413#3 -152413#2 -152413#1 -152413#0 152412 -152537 152928#4 152411 152531 152328#1 152288 152855 152210 152536 152394 153641 152330#0 152330#1 152330#2 152330#3 152330#4 152330#5 152166 152168#0 152168#1 152399#1 152399#2 152901#0 152901#1 152320 152403 152132 152421 152895#2 152982#0 152982#1 152982#2 -152983 152873#0 152873#1 152873#2 152163#0 152163#1"/>
    </vehicle>
    <vehicle id="special_1-2_246" type="special" depart="19243" departLane="best" arrivalPos="random">