<?xml version="1.0" encoding="UTF-8"?>

<!--
    Monaco SUMO Traffic (MoST) Scenario
    Copyright (C) 2018
    Lara CODECA

    This program is free software: you can redistribute it and/or modify
    it under the terms of the GNU General Public License as published by
    the Free Software Foundation, either version 3 of the License, or
    (at your option) any later version.

    This program is distributed in the hope that it will be useful,
    but WITHOUT ANY WARRANTY; without even the implied warranty of
    MERCHANTABILITY or FITNESS FOR A PARTICULAR PURPOSE.  See the
    GNU General Public License for more details.

    You should have received a copy of the GNU General Public License
    along with this program.  If not, see <http://www.gnu.org/licenses/>.
-->

<routes xmlns:xsi="http://www.w3.org/2001/XMLSchema-instance" xsi:noNamespaceSchemaLocation="http://sumo.dlr.de/xsd/routes_file.xsd"> 
    <vehicle id="special_1-2_106" type="special" depart="18040" departLane="best" arrivalPos="random">
        <route edges="-152773 152380 152812#0 152812#1 152812#2 152812#3 152812#4 152812#5 -152806#2 -152806#1 -152800 152935#1 152935#2 152542 -152763#2 -152776 -152702#3 -152702#2 -152702#1 -152702#0 -152995 -152993 -153409#16 -153409#15 -153409#14 -153409#13 -153409#12 -153409#11 -153409#10 -153409#9 -153409#8 -153409#7 -153409#6 -153409#5 -153409#4 -153409#3 -153409#1 -153409#0 153395#0 153395#1 152929#4 152929#0 152929#1 152584 -152587#4 -152587#3 -152587#2 -152587#1 -152587#0 152587#0 152587#1 152587#2 152587#3"/>
    </vehicle>
    <vehicle id="special_1-1_217" type="special" depart="18210" departLane="best" arrivalPos="random">
        <route edges="152810#10 152810#11 152755 152226 152781#0 152781#1 152781#2 152163 152965#0 152965#1 152965#2 152965#3 -152791#1 152820#0 152820#1 152133#7 -152135 152314#4 152305 152308#3 -152301 -152827#2 152801#1 152801#2 -152762#1 -152762#0"/>
    </vehicle>
    <vehicle id="special_1-1_91" type="special" depart="18219" departLane="best" arrivalPos="random">
        <route edges="152699 152701#0 152701#1 152170#0 152170#1 -152697#5 -152697#4 -152697#3 -152697#2 -152697#1 -152697#0 152225 152939#0 152789 152781#2 152163 152965#0 152965#1 152965#2 152965#3 152983#0 152983#1 152983#2 -152983#2 -152983#1 -152983#0 -152965#3 -152965#2 -152965#1 -152965#0 -152163"/>
    </vehicle>
    <vehicle id="special_2-1_166" type="special" depart="18219" departLane="best" arrivalPos="random">
        <route edges="153487#0 153487#1 153487#2 -152309 -152588 152588 152309 -153487#2 -153487#1 -153487#0 153376#5 152586#1 152586#2 152578#2 152578#3 152578#4 152450#2 152450#3 152602#0 152602#1 -152613 -152606 152598 152603 152359#3 152359#0 152660#0 152660#1 152660#2"/>
    </vehicle>
    <vehicle id="special_2-1_62" type="special" depart="18223" departLane="best" arrivalPos="random">
        <route edges="-153469#1 -153469#0 152916#2 153006#0 153006#1 -153472#22 -153472#20 -153472#19 -153472#18 -153472#17 -153472#16 -153472#15 -153472#14 -153472#13 -153472#12 -153472#11 -153472#10 153004#0 153004#1 153004#2 153004#3 153004#4 153004#5 153004#6 153004#7 152398#2 152398#3 152895#0 152895#1 152895#2 -152866#4 -152866#3 -152866#2 -152866#1 -152866#0 153548#3 153548#0 152941#0 152941#1 152941#2 -152810#10"/>
    </vehicle>
    <vehicle id="special_1-3_143" type="special" depart="18229" departLane="best" arrivalPos="random">
        <route edges="152286 152283 152650#1 152650#2 152650#3 152650#4 152666#3 152666#4 152278 -152286 -152757 -152287 -152796 -152288 -152790 152289 152381 -152202 152457 152307 152308#2 -152305 152314#1 152314#2 -152304 152277 152526 -152326#5 -152326#4 -152326#3 -152326#2 -152326#1 -152326#0 153633 153630#1 153632#1 152998#0 152998#1 -153454#1 -153454#0"/>
    </vehicle>
    <vehicle id="special_2-1_139" type="special" depart="18233" departLane="best" arrivalPos="random">
        <route edges="153053 153323#3 153323#4 153323#5 153323#6 153323#7 153323#8 153323#9 153323#11 153323#12 -153331#7 -153331#6 -153331#5 -153331#4 -153331#3 -153331#2 -153331#1 -153331#0 -153440#0 -153437#3 -153437#2 -153437#1 153439 152808#1 152808#2 152808#3 152808#4 152808#5 152810#8 152810#9 152810#10 152810#11 152755 152226 152781#0 152781#1 152781#2 152163 152965#0 152965#1 152965#2 152965#3 -152791#1 152820#0 152820#1 152133#7 152133#0 152133#1 152133#2 -152853 152295 -152894#2 -152894#1"/>
    </vehicle>
    <vehicle id="special_1-2_69" type="special" depart="18240" departLane="best" arrivalPos="random">
        <route edges="152601#1 152601#2 152165 152219 152449 152450#1 -152578#4 -152578#3 -152578#2 -152578#1 -152578#0 152572 152215 152342#1 152217 -153476#7 -153476#6 -153476#5 -153476#4 -153476#3 -153476#2 -153476#1 -153476#0 153368#2 153368#3 153368#4 -152303 -152561 -152241 -153365#1 -153365#0 152242 -153379#5 -153379#4 -153379#3 -153379#2 -153379#1 -153382 152172#1 152172#2 152173 153380#0 153380#1 153380#2 152624#1 -153383#2 -153383#1 -153388#1 -153387#1 -153387#0 152732#0 152732#1 152732#2 -152730#0 153420#1 152620#0 152620#1"/>
    </vehicle>
    <vehicle id="special_1-3_95" type="special" depart="18250" departLane="best" arrivalPos="random">
        <route edges="152965#0 152965#1 152965#2 152965#3 -152791#1 152820#0 152820#1 152133#7 152133#0 152134 152964 -152266 -152414 -152954 153472#1 153472#2 153472#3 153472#5 153472#6 153472#7 153472#8 153472#9 153472#10 153472#11 153472#12 153472#13 153472#14 153472#15 153472#16 153472#17 153472#18 153472#19 153472#20 153472#22 153472#23 153472#24 153472#25 153472#26 -152299 -153338 -152298 -153473#1 -152899"/>
    </vehicle>
    <vehicle id="special_2-1_289" type="special" depart="18287" departLane="best" arrivalPos="random">
        <route edges="-152988 -153488 -153353#2 -153350#2 -153350#1 -153350#0 -153355#1 -153355#0 -153319#4 -153319#3 -153319#2 -153319#1 -153319#0 -153361#4 -153361#3 -153361#1 -153361#0 152342#1 152217 152581#1 152346 152578#0 152578#1 152578#2 152578#3 152578#4 152450#2 152450#3 152450#4 -152449 -152219 -152165 -152601#2 -152601#1 -152601#0 -152663#10 -152663#9 -152663#8 -152663#7 -152663#6 -152663#5 -152663#4 152710 152170#0 152170#1 -152697#5 -152697#4 -152697#3 -152697#2 -152697#1 -152697#0 152225 152939#0 152789 152781#2 152163 152965#0 152965#1 152965#2 152965#3 152983#0 152983#1 152828#0 152828#1 152828#2 152828#3 152819#0 152819#1"/>
    </vehicle>
    <vehicle id="special_3-1_147" type="special" depart="18315" departLane="best" arrivalPos="random">
        <route edges="-152423 -153390#3 -153390#2 -153390#1 -153390#0 -152409#2 -152409#1 -152409#0 152408 -152533 152924#4 152407 152527 152324#1 152284 152851 152206 152532 152390 153637 152326#0 152326#1 152326#2 152326#3 152326#4 152326#5 152162 152164#0 152164#1 152395#1 152395#2 152897#0 152897#1 152316 152399 152534#0 152534#1 152133#2 152133#3 152133#4 152133#5 152817#0 152817#1 152817#2 152955#4 -152813#3 -152813#2 -152813#1 -152813#0 -152772 152856 152858 -152885 152881 152880#0 -152158 152867"/>
    </vehicle>
    <vehicle id="special_3-1_143" type="special" depart="18321" departLane="best" arrivalPos="random">
        <route edges="-153453 153448#1 153448#2 153447#1 153447#2 153447#3 153447#4 153447#5 153447#6 153447#7 153429#1 152730#0 -152732#2 -152732#1 -152732#0 153387#0 153387#1 153388#1 153383#1 153383#2 -152624#1 -152624#0 -153380#1 -153380#0 -152173 -152172#2 -152172#1 -152172#0 153379#1 153379#2 153379#3 153379#4 153379#5 -152242 153365#0 153365#1 152241 152561 152303 -153368#4 -153368#3 -153368#2 153476#0 153476#1 153476#2 153476#3 153476#4 153476#5 153476#6 153476#7 152581#1 152346 152578#0 152578#1 152578#2 152578#3 152578#4 152450#2 152611#0 152611#1 152611#2 -152315 -152961#1 152451 152452#0 152452#1"/>
    </vehicle>
    <vehicle id="special_3-1_122" type="special" depart="18324" departLane="best" arrivalPos="random">
        <route edges="-152409#3 -152409#2 -152409#1 -152409#0 152408 -152533 152924#4 152407 152527 152324#1 152284 152851 152206 152532 152390 153637 152326#0 152326#1 152326#2 152326#3 152326#4 152326#5 152162 152164#0 152164#1 152395#1 152395#2 152897#0 152897#1 152316 152399 -152954 152891#1 152891#2 152978#0 152978#1 152978#2 152978#3 -152896#1 -152896#0 152971#3 152971#4 152879#0 152879#1 152879#2 152870#5 152870#0 152447"/>
    </vehicle>
    <vehicle id="special_2-1_74" type="special" depart="18336" departLane="best" arrivalPos="random">
        <route edges="-153555#0 -152883#1 -152883#0 152894#0 152894#1 152894#2"/>
    </vehicle>
    <vehicle id="special_1-1_99" type="special" depart="18337" departLane="best" arrivalPos="random">
        <route edges="152933#4 -152602#6 -152602#5 -152602#4 -152602#3 -152602#2 -152613 -152606 -152601#2 -152601#1 -152601#0 -152663#10 -152663#9 -152663#8 -152663#7 -152663#6 -152663#5 -152663#4 152710 152170#0 152170#1 -152697#5 -152697#4 -152697#3 -152697#2 -152697#1 -152697#0 152225 152939#0 152789 152781#2 152163 152965#0"/>
    </vehicle>
    <vehicle id="special_3-1_222" type="special" depart="18349" departLane="best" arrivalPos="random">
        <route edges="153453 153455#1 153454#1 153001#0 153001#1 152231 153334 153637 152326#0 152326#1 152326#2 152326#3 152326#4 152326#5 152162 152164#0 152164#1 152395#1 152395#2 152395#3 -152887#1 -152887#0 152296 -152888#1 -152888#0 152832#0 152832#1 152832#2 152832#3 152832#4 -152826#2 -152826#1 -152826#0 -153437#1 -153437#0 -153441#1 -153441#0 -153400#8 -153400#7 -153400#6 -153400#5 -153400#4 -153400#3 -153400#2 -153400#1 -153400#0"/>
    </vehicle>
    <vehicle id="special_1-2_92" type="special" depart="18397" departLane="best" arrivalPos="random">
        <route edges="153487#0 153487#1 153487#2 -152309 -152588 152588 152309 -153487#2 -153487#1 -153487#0 153376#5 152586#1 152586#2 -152578#1 -152578#0 152572 152215 153361#0 153361#1 153361#3 153361#4 153319#0 153319#1 153319#2 153319#3 153319#4 153355#0 153355#1 153350#0 153350#1 153350#2 153353#2 153488 153008#1"/>
    </vehicle>
    <vehicle id="special_3-1_0" type="special" depart="18400" departLane="best" arrivalPos="random">
        <route edges="152253 153473#0 153473#1 152298 153338 152299 -153472#26 -153472#25 -153472#24 -153472#23 -153472#22 -153472#20 -153472#19 -153472#18 -153472#17 -153472#16 -153472#15 -153472#14 -153472#13 -153472#12 -153472#11 -153472#10 -153472#9 -153472#8 -153472#7 -153472#6 -153472#5 -153472#3 -153472#2 -153472#1 -153472#0 152414 152266 152415#0 152415#1 152304 152314#3 152314#4 152305 152308#3 -152301 -152827#2 -152827#1 -152827#0 152812#4 152812#5 -152806#2 -152806#1 -152800 152935#1 152935#2 -152777"/>
    </vehicle>
    <vehicle id="special_1-3_162" type="special" depart="18438" departLane="best" arrivalPos="random">
        <route edges="152343#0 152343#1 152531#0 152531#1 152531#2 152531#4 152531#6 152650#4 152666#3 152666#4 152278 -152286 -152757 -152287 -152796 -152288 -152790 152289 152381 -152202 152457 152307 152308#2 -152305 152314#1 152314#2 -152304 152277 152526 -152326#5 -152326#4 -152326#3 -152326#2 -152326#1 -152326#0 153633 152401 -153003#6 -153452#6 -153452#5 -153452#4 -153452#3 -153452#2 -153452#1 -153452#0 153447#5 153431#0 153431#1 153431#2 153431#3 152412#1 152409#0 152409#1 152409#2 153390#0 153390#1 153390#2 153390#3 153390#4 -153390#4 -153390#3"/>
    </vehicle>
    <vehicle id="special_1-1_36" type="special" depart="18440" departLane="best" arrivalPos="random">
        <route edges="152787 152792#0 152792#1 153545#2 152821#0 152821#1 -153269#2 -153269#1 -152131#1 -152131#0 152798 152814#1 152814#2 152814#3 152812#0 152812#1 152812#2 152812#3 152812#4 152812#5 -152806#2 -152806#1 -152800 152935#1 152935#2 152542 -152763#2 -152763#1 -152763#0 -152697#0 152225 152939#0 152939#1 -152810#11 -152810#10 -152810#9 -152810#8"/>
    </vehicle>
    <vehicle id="special_1-2_150" type="special" depart="18475" departLane="best" arrivalPos="random">
        <route edges="152866#1 152866#2 152866#3 -152828#6 -152828#5 -152828#4 -152828#3 -152828#2 -152828#1 -152828#0 -152983#1 -152983#0 -152965#3 -152965#2 -152965#1 -152965#0 -152163 152940#0 152940#1 152940#2 152230 152697#0 152697#1 152697#2 152697#3 152697#4 152697#5 152699 152700 152663#1 152663#2 152663#3 152663#4 152663#5 152663#6 152663#7 152663#8 152663#9 152663#10 152663#11 152601#1 152601#2 152165 152219 152449 152450#1 -152578#4 -152578#3 -152578#2 -152578#1 -152578#0 152572 152215 152342#1 152217 -153476#7 -153476#6 -153476#5 -153476#4 -153476#3 -153476#2 -153476#1 -153476#0 -153368#1 -153322#4 -153322#3 -153322#2 -153322#1 152986"/>
    </vehicle>
    <vehicle id="special_1-3_165" type="special" depart="18505" departLane="best" arrivalPos="random">
        <route edges="-152689#2 -152689#1 -152689#0 152705#2 -152702#0 -152995 -152993 -153409#16 -153409#15 -153409#14 153411#0 153411#1 153327#0 153327#1 153327#2 153327#4 153327#5 153327#6 153327#7 153327#8 153327#9 153327#10 153327#11 153325#4 153325#5 153408#5 152247 153381#0 153381#1 152246 153379#0 -153382 152172#1 152172#2 152173 153380#0 153380#1 153380#2 152624#1 -153383#2 -153383#1 -153388#1 -153387#1 -153387#0 152732#0 152732#1 152732#2 -152730#0 -153420#0 -153429#0 -153447#6 -153447#5 -153447#4 -153447#3 -153447#2 -153447#1 -153447#0 -153448#1 153453"/>
    </vehicle>
    <vehicle id="special_1-3_219" type="special" depart="18513" departLane="best" arrivalPos="random">
        <route edges="152965#1 152965#2 152965#3 -152791#1 152820#0 152820#1 152133#7 -152135 152314#4 152314#1 152314#2 -152304 152277 152526 -152326#5 -152326#4 -152326#3 -152326#2 -152326#1 -152326#0 153633 152401 -153003#6 -153452#6 -153452#5 -153452#4 -153452#3 -153452#2 -153452#1 -153452#0 153447#5 153431#0 153431#1 153431#2 153431#3 152412#1 152409#0 152409#1 152409#2 152409#3 152248 153391 152249 -153432 153432 -152249 -153391 -152248 -152409#3"/>
    </vehicle>
    <vehicle id="special_1-2_237" type="special" depart="18526" departLane="best" arrivalPos="random">
        <route edges="152787 152792#0 152792#1 153545#2 152821#0 152821#1 152956#10 152955#2 152955#3 -152817#2 -152817#1 -152817#0 152133#6 152133#7 152133#0 152134 152964 -152266 -152414 -152954 153472#1 153472#2 153472#3 153472#5 153472#6 153472#7 153472#8 153472#9 153472#10 153472#11 153472#12 153472#13 153472#14 153472#15 153472#16 153472#17 153472#18 153472#19 153472#20 153472#22 -153006#1 -153006#0 -152916#2 153469#0 153469#1 153469#2 153469#3 153469#4"/>
    </vehicle>
    <vehicle id="special_1-3_250" type="special" depart="18545" departLane="best" arrivalPos="random">
        <route edges="152453#0 152453#1 152453#2 152161#1 152531#0 152531#1 152531#2 152531#4 152531#6 152650#4 152666#3 152666#4 152278 -152286 -152757 -152287 -152796 -152288 -152790 152289 152381 -152202 152457 152307 152308#2 -152305 152314#1 152314#2 -152304 152277 152526 -152326#5 -152326#4 -152326#3 -152326#2 -152326#1 -152326#0 153633 152401 -153003#6 -153452#6 -153452#5 -153452#4 -153452#3 -153452#2 -153452#1 -153452#0 153447#5 153431#0 153431#1 153431#2 153431#3 152412#1 152409#0 152409#1 152409#2 152409#3"/>
    </vehicle>
    <vehicle id="special_1-2_293" type="special" depart="18567" departLane="best" arrivalPos="random">
        <route edges="-152673#4 -152673#3 -152673#2 -152673#1 -152673#0 152666#4 152278 -152286 -152757 -152287 -152796 -152288 -152790 152289 152381 -152202 152457 152307 152308#2 -152305 152314#1 152313 -152894#2 -152894#1 -152894#0 152970 152883#1 -153554"/>
    </vehicle>
    <vehicle id="special_2-1_185" type="special" depart="18568" departLane="best" arrivalPos="random">
        <route edges="152539 152543 -152988 -153488 -153353#2 -153350#2 -153350#1 -153350#0 -153355#1 -153355#0 -153319#4 -153319#3 -153319#2 -153319#1 -153319#0 -153361#4 -153361#3 -153361#1 -153361#0 152342#1 152217 152581#1 152346 152578#0 152578#1 152578#2 152578#3 152578#4 152450#2 152450#3 152450#4 -152449 -152219 -152165 -152601#2 -152601#1 -152601#0 -152663#10 -152663#9 -152663#8 -152663#7 -152663#6 -152663#5 -152663#4 -152663#3 -152663#2 -152663#1 152698#0 152698#1 -152771#5 -152771#4 -152771#3 -152771#2 -152771#0 152806#0 152806#1 152806#2 152816 152956#1 152956#2 152956#3 -152459#1"/>
    </vehicle>
    <vehicle id="special_2-1_136" type="special" depart="18624" departLane="best" arrivalPos="random">
        <route edges="-152953 -152279 152550 153652 152279 -152551 -153353#2 -153350#2 -153350#1 -153350#0 -153355#1 -153355#0 -153319#4 -153319#3 -153319#2 -153319#1 -153319#0 -153361#4 -153361#3 -152553#1 -152553#0 153551 -152461#0 152966#1 152573#2 152573#3 152573#4 152141 152169 153371 152161#1 152531#0 152531#1 152599 152600 152530#5 152530#6"/>
    </vehicle>
    <vehicle id="special_1-1_230" type="special" depart="18625" departLane="best" arrivalPos="random">
        <route edges="-152810#10 152803 152941#2 152810#11 152755 152226 152781#0 152781#1 152781#2 152163 152965#0 152965#1 152965#2 152965#3 -152791#1 152804 152955#3 152955#4 152955#5 152775 152814#0 152814#1 152814#2 152814#3 152384#0 152384#1 152773 152378 152767 -152765 152942 -152773"/>
    </vehicle>
    <vehicle id="special_1-2_26" type="special" depart="18659" departLane="best" arrivalPos="random">
        <route edges="-152394#3 -152394#2 -152394#1 -152394#0 152454#3 152454#0 152454#1 -152392#2 -152392#1 152869#2"/>
    </vehicle>
    <vehicle id="special_1-3_194" type="special" depart="18670" departLane="best" arrivalPos="random">
        <route edges="152159#0 152159#1 152393#0 152393#1 152393#2 -152159#1 -152159#0 -152869#2 -152869#1 -152869#0 152979 152978#3 152978#4 152969 -152891#1 -153472#0 152414 152266 152415#0 152415#1 152277 152526 -152326#5 -152326#4 -152326#3 -152326#2 -152326#1 -152326#0 153633 153630#1 153632#1 152998#0 152998#1 -153454#1 -153454#0 -153453"/>
    </vehicle>
    <vehicle id="special_1-1_175" type="special" depart="18680" departLane="best" arrivalPos="random">
        <route edges="152933#4 -152602#6 -152602#5 -152602#4 -152602#3 -152602#2 -152613 -152606 -152601#2 -152601#1 -152601#0 -152663#10 -152663#9 -152663#8 -152663#7 -152663#6 -152663#5 -152663#4 -152663#3 -152663#2 -152663#1 152698#0 152698#1 -152771#5 -152771#4 -152771#3 -152771#2 -152771#0 152806#0 152806#1 152806#2"/>
    </vehicle>
    <vehicle id="special_1-3_53" type="special" depart="18682" departLane="best" arrivalPos="random">
        <route edges="152778 153548#2 152866#0 152866#1 152866#2 152866#3 152866#4 152866#5 153002#0 153002#1 153002#2 153002#3 -152162 -152326#5 -152326#4 -152326#3 -152326#2 -152326#1 -152326#0 153633 152401 -153003#6 -153452#6 -153452#5 -153452#4 -153452#3 -153452#2 -153452#1 -153452#0 -153447#4 -153447#3 -153447#2 -153447#1 -153447#0 -153448#1 153453"/>
    </vehicle>
    <vehicle id="special_2-1_70" type="special" depart="18705" departLane="best" arrivalPos="random">
        <route edges="-152808#3 -152808#2 -152808#1 -152808#0 -153437#0 -153441#1 -153441#0 152999#0 152999#1 153000 152809 152797 152778 153548#2 152866#0 152866#1 152866#2 152866#3 -152828#6 -152828#5 -152828#4 -152828#3 -152828#2 -152828#1 -152828#0 -152983#1 -152983#0 -152965#3 -152965#2 -152965#1 -152965#0 152787"/>
    </vehicle>
    <vehicle id="special_2-1_267" type="special" depart="18717" departLane="best" arrivalPos="random">
        <route edges="-152644#6 -152644#5 -152644#4 -152644#3 -152644#2 -152644#1 -152644#0 152643#1 152643#2 153401#0 153401#1 153401#2 153401#3 153402#0 153402#1 153402#2 152936 152680 152170#1 -152697#5 -152697#4 -152697#3 152776 152763#2 -152542 -152777"/>
    </vehicle>
    <vehicle id="special_1-2_91" type="special" depart="18732" departLane="best" arrivalPos="random">
        <route edges="152583#0 152583#1 152609 -152609 -152583#1 -152583#0 152220 152166#0 152166#1 -152598 152606 152613 152602#2 152602#3 152602#4 152602#5 152602#6 152602#7 152602#8 152602#9 152509#1 152349#4 152349#1 -152644#6 -152644#5 -152644#4 -152644#3 -152644#2 -152644#1 -152644#0"/>
    </vehicle>
    <vehicle id="special_3-1_48" type="special" depart="18732" departLane="best" arrivalPos="random">
        <route edges="-153453 153448#1 153448#2 153447#1 153447#2 153447#3 153447#4 153447#5 153447#6 153447#7 153429#1 152730#0 -152732#2 -152732#1 -152732#0 153387#0 153387#1 153388#1 153383#1 153383#2 -152624#1 -152624#0 -153380#1 -153380#0 -152173 -152172#2 -152172#1 -152172#0 -153379#0 -152246 -153381#1 -153381#0 -152247 -153408#5 -153325#5 -153325#4 -153327#11 -153327#10 -153327#9 -153327#8 -153327#7 -153327#6 -153327#5 -153327#4 -153327#2 -153327#1 -153327#0 -153411#1 -153411#0 153409#14 153409#15 153409#16 152993 152995 152702#0 152702#1 152702#2 152702#3 152776 152763#2 -152542 -152935#2"/>
    </vehicle>
    <vehicle id="special_1-1_293" type="special" depart="18763" departLane="best" arrivalPos="random">
        <route edges="-152644#6 -152644#5 -152644#4 -152644#3 -152644#2 -152644#1 -152644#0 152643#1 152643#2 153401#0 153401#1 153401#2 153401#3 153402#0 153402#1 153402#2 152936 152680 152170#1 -152697#5 -152697#4 -152697#3 -152697#2 -152697#1 -152697#0 152225 152939#0 152939#1 -152810#11 -152941#2 -152803 152810#10"/>
    </vehicle>
    <vehicle id="special_1-2_225" type="special" depart="18783" departLane="best" arrivalPos="random">
        <route edges="152293#0-AddedOffRampEdge 152293#1 152963 152812#2 152812#3 152812#4 152812#5 -152806#2 -152806#1 -152800 152935#1 152935#2 152542 -152763#2 -152776 -152702#3 -152702#2 -152702#1 -152702#0 -152995 -152993 -153409#16 -153409#15 -153409#14 153411#0 153411#1 153327#0 153327#1 153327#2 153327#4 153327#5 153327#6 153327#7 153327#8 153327#9 153327#10 153327#11 -153325#3 -153325#2 -153325#1 -153325#0"/>
    </vehicle>
    <vehicle id="special_1-3_252" type="special" depart="18793" departLane="best" arrivalPos="random">
        <route edges="152871#1 152871#2 -152394#4 -152394#3 -152394#2 152642 -152294 -152869#3 -152869#2 -152869#1 -152869#0 152979 152978#3 152978#4 152969 -152891#1 153472#1 153472#2 153472#3 153472#5 153472#6 153472#7 153472#8 153472#9 153472#10 153472#11 153472#12 153472#13 153472#14 153472#15 153472#16 153472#17 153472#18 153472#19 153472#20 153472#22 153472#23 153472#24 153472#25 153472#26 -152299 -153338 -152298 -153473#1 -152899"/>
    </vehicle>
    <vehicle id="special_1-3_211" type="special" depart="18801" departLane="best" arrivalPos="random">
        <route edges="153395#1 152929#4 152929#0 152929#1 152929#2 152929#3 -153395#1 -153395#0 152645#0 152645#1 152645#2 152645#3 152645#4 152645#5 153402#0 153402#1 153402#2 152936 152680 152170#1 -152697#5 -152697#4 -152697#3 -152697#2 -152697#1 -152697#0 152225 152939#0 152939#1 -152810#11 -152810#10 -152810#9 -152810#8 -152810#7 -152810#6 -152810#5 -152810#4 -152810#3 -152810#2 -152810#1 -152810#0 152985 -152897#1 -152897#0 152395#3 152395#0 -152164#1 -152164#0 -152162 -152326#5 -152326#4 -152326#3 -152326#2 -152326#1 -152326#0 153633"/>
    </vehicle>
    <vehicle id="special_1-3_132" type="special" depart="18827" departLane="best" arrivalPos="random">
        <route edges="153007#1 152645#1 152645#2 152645#3 152645#4 152645#5 153402#0 153402#1 153402#2 152936 152680 152170#1 -152697#5 -152697#4 -152697#3 -152697#2 -152697#1 -152697#0 152225 152939#0 152939#1 -152810#11 -152810#10 -152810#9 -152810#8 -152810#7 -152810#6 -152810#5 -152810#4 -152810#3 -152810#2 -152810#1 -152810#0 152985 -152897#1 -152897#0 152395#3 152395#0 -152164#1 -152164#0 -152162 -152326#5 -152326#4 -152326#3 -152326#2 -152326#1 -152326#0 153633 152401 -153003#6 -153452#6 -153452#5 -153452#4 -153452#3 -153452#2 -153452#1 -153452#0 153447#5 153431#0 153431#1 153431#2 153431#3 152412#1 152409#0 152409#1 152409#2 153390#0 153390#1 153390#2 153390#3 152423"/>
    </vehicle>
    <vehicle id="special_1-1_203" type="special" depart="18838" departLane="best" arrivalPos="random">
        <route edges="152941#1 -152803 -152810#9 152797 152778 153548#2 152866#0 152866#1 152866#2 152866#3 152866#4 152866#5 -152895#1 -152895#0"/>
    </vehicle>
    <vehicle id="special_1-3_151" type="special" depart="18844" departLane="best" arrivalPos="random">
        <route edges="152819#3 152788#0 152788#1 -152828#0 -152983#1 -152983#0 -152791#1 152820#0 152820#1 152133#7 152133#0 152134 152964 -152266 -152414 -152954 153472#1 153472#2 153472#3 153472#5 153472#6 153472#7 153472#8 153472#9 153472#10 153472#11 153472#12 153472#13 153472#14 153472#15 153472#16 153472#17 153472#18 153472#19 153472#20 153472#22 153472#23 153472#24 153472#25 153472#26 -152299 -153338 -152298 -153473#1 -152899"/>
    </vehicle>
    <vehicle id="special_1-1_73" type="special" depart="18847" departLane="best" arrivalPos="random">
        <route edges="152866#0 152866#1 152866#2 152866#3 -152828#6 -152828#5 -152828#4 -152828#3 -152828#2 -152828#1 -152828#0 -152983#1 -152983#0 -152965#3 -152965#2 -152965#1 -152965#0 -152163 152940#0 152940#1 152940#2 152230 152697#0 152697#1 152697#2 152776 -152763#1 -152763#0 -152697#0 152225 152939#0"/>
    </vehicle>
    <vehicle id="special_1-1_27" type="special" depart="18853" departLane="best" arrivalPos="random">
        <route edges="152762#0 152762#1 -152801#2 -152801#1 152827#2 152301 152308#0 152267 152419 152202 -152381 -152289 152790 152288 152796 152287 152757 152286 152282 152665#0 152665#1 152359#2 -152603 -152166#1 -152166#0 -152220 152583#0 152583#1 152609 -152609 -152583#1 -152583#0 152220 152166#0 152166#1 -152598"/>
    </vehicle>
    <vehicle id="special_1-1_178" type="special" depart="18856" departLane="best" arrivalPos="random">
        <route edges="-152832#4 -152832#3 -152832#2 -152387 152832#3 152832#4 152832#5 152832#6 152810#3 152810#4 152810#5 152810#6 152810#7 152810#8 152810#9 152810#10 152810#11 152755 152226 152781#0 152815 152940#2 152230 152697#0 152697#1 152697#2 152697#3 152697#4 152697#5 152699 152700 152663#1 152663#2 152663#3 152663#4 152663#5 152663#6 152663#7 152663#8 152663#9 152663#10 152663#11 152601#1 152601#2 152165 152219 152449 152450#1 -152578#4 -152578#3 -152578#2 -152586#2 -152586#1 -152586#0 -153376#4 -153376#3"/>
    </vehicle>
    <vehicle id="special_3-1_63" type="special" depart="18871" departLane="best" arrivalPos="random">
        <route edges="153448#0 153448#1 153448#2 153447#1 153447#2 153447#3 153447#4 153452#0 153452#1 153452#2 153452#3 153452#4 153452#5 153452#6 153003#6 152402 153632#1 152998#0 152834 153001#1 152231 153334 153637 152326#0 152326#1 152326#2 152326#3 152326#4 152326#5 152162 152164#0 152164#1 152395#1 152395#2 152897#0 152897#1 152984 152810#0 152810#1 152810#2 152810#3 152810#4 152810#5 152810#6 152810#7 -152808#5"/>
    </vehicle>
    <vehicle id="special_1-3_12" type="special" depart="18874" departLane="best" arrivalPos="random">
        <route edges="152984 152810#0 152810#1 152892 -152810#0 152985 -152897#1 -152897#0 152395#3 152395#0 -152164#1 -152164#0 -152162 -152326#5 -152326#4 -152326#3 -152326#2 -152326#1 -152326#0 153633 153630#1 153632#1 152998#0 152998#1 -153454#1 -153454#0 -153455#0 -152252 153456 -153456 152252 153455#0 153455#1"/>
    </vehicle>
    <vehicle id="special_1-1_66" type="special" depart="18891" departLane="best" arrivalPos="random">
        <route edges="-152202 152457 152307 152308#2 -152305 152314#1 152314#2 152314#3 152135 152133#0 152134 152964 152415#0 -152934#2 -152934#1 -152934#0 152398#3 152895#0 152895#1 152895#2 -152866#4 -152828#6 -152828#5 -152828#4 -152828#3 -152828#2 -152828#1 -152828#0 -152983#1 -152983#0 -152965#3 -152965#2 -152965#1 -152965#0 -152163"/>
    </vehicle>
    <vehicle id="special_1-3_230" type="special" depart="18910" departLane="best" arrivalPos="random">
        <route edges="-152602#8 -152602#7 -152602#6 -152602#5 -152602#4 -152602#3 -152602#2 -152613 -152606 152598 152603 152359#3 152359#0 152359#1 -152665#1 -152665#0 -152222 -152286 -152757 -152287 -152796 -152288 -152790 152289 152381 -152202 152457 152307 152308#2 -152305 152314#1 152314#2 152314#3 152135 152133#0 152134 152964 -152266 -152414 -152954 153472#1 153472#2 153472#3 153472#5 153472#6 153472#7 153472#8 153472#9 153472#10 153472#11 153472#12 153472#13 153472#14 153472#15 153472#16 153472#17 153472#18 153472#19 153472#20 153472#22 153472#23 153472#24 153472#25 153472#26 -152299 -153338 -152298 -153473#1 -153473#0 -152253 -152923 -152300 -153474 153474 152300 152923"/>
    </vehicle>
    <vehicle id="special_1-1_245" type="special" depart="18963" departLane="best" arrivalPos="random">
        <route edges="-152869#1 -152869#0 152979 152978#3 -152896#1 -152883#2 -152883#1 -152883#0 152894#0 152894#1 152894#2 -152295 152853 152133#3 152133#4 152133#5 152817#0 152817#1 152817#2 152955#4 -152813#3 -152813#2 -152813#1 -152813#0 -152772 152759 152756 152795 152799 -152802 -152784"/>
    </vehicle>
    <vehicle id="special_1-3_72" type="special" depart="18963" departLane="best" arrivalPos="random">
        <route edges="152866#0 152866#1 152866#2 152866#3 152866#4 152866#5 -152895#1 -152895#0 152398#0 152398#1 -153004#7 -153004#6 -153004#5 -153004#4 -153004#3 -153004#2 -153004#1 -153004#0 153472#10 153472#11 153472#12 153472#13 153472#14 153472#15 153472#16 153472#17 153472#18 153472#19 153472#20 153472#22 153472#23 153472#24 153472#25 153472#26 -152299 -153338 -152298 -153473#1 -152899"/>
    </vehicle>
    <vehicle id="special_3-1_71" type="special" depart="19011" departLane="best" arrivalPos="random">
        <route edges="153453 153455#1 153454#1 153001#0 153001#1 152231 153334 153637 152326#0 152326#1 152326#2 152326#3 152326#4 152326#5 152162 -153002#3 -153002#2 -153002#1 -153002#0 -152895#1 -152895#0 152398#0 152398#1 152398#2 152934#0 152934#1 152934#2 152415#1 152304 152314#3 152314#4 152305 152308#3 -152301 -152827#2 -152827#1 -152827#0 152812#4 152812#5 152783#0 152783#1 152783#2 152758 152285"/>
    </vehicle>
    <vehicle id="special_1-1_127" type="special" depart="19081" departLane="best" arrivalPos="random">