<?xml version="1.0" encoding="UTF-8"?>

<!--
    Monaco SUMO Traffic (MoST) Scenario
    Copyright (C) 2018
    Lara CODECA

    This program is free software: you can redistribute it and/or modify
    it under the terms of the GNU General Public License as published by
    the Free Software Foundation, either version 3 of the License, or
    (at your option) any later version.

    This program is distributed in the hope that it will be useful,
    but WITHOUT ANY WARRANTY; without even the implied warranty of
    MERCHANTABILITY or FITNESS FOR A PARTICULAR PURPOSE.  See the
    GNU General Public License for more details.

    You should have received a copy of the GNU General Public License
    along with this program.  If not, see <http://www.gnu.org/licenses/>.
-->

<routes xmlns:xsi="http://www.w3.org/2001/XMLSchema-instance" xsi:noNamespaceSchemaLocation="http://sumo.dlr.de/xsd/routes_file.xsd"> 
    <vehicle id="special_1-2_145" type="special" depart="18040" departLane="best" arrivalPos="random">
        <route edges="-152838#4 -152838#3 -152838#2 -152392 152838#3 152838#4 152838#5 152838#6 152816#3 152816#4 152816#5 152816#6 152816#7 152816#8 152816#9 152816#10 152816#11 152761 152231 152787#0 152821 152946#2 152235 152703#0 152703#1 152703#2 152703#3 152703#4 152703#5 152705 152706 152669#1 152669#2 152669#3 152669#4 152669#5 152669#6 152669#7 152669#8 152669#9 152669#10 152669#11 152607#1 152607#2 152170 152224 152455 152456#1 -152584#4 -152584#3 -152584#2 -152584#1 -152584#0 152578 152220 152347#1 152222 -153482#7 -153482#6 -153482#5 -153482#4 -153482#3 -153482#2 -153482#1 -153482#0 -153374#1 -153328#4 -153328#3 -153328#2 -153328#1 152992 -152992 153328#1"/>
    </vehicle>
    <vehicle id="special_3-1_0" type="special" depart="18062" departLane="best" arrivalPos="random">
        <route edges="-153459 153454#1 153454#2 153453#1 153453#2 153453#3 153453#4 153453#5 153453#6 153453#7 153435#1 152736#0 -152738#2 -152738#1 -152738#0 153393#0 153393#1 153394#1 153389#1 153389#2 -152630#1 -152630#0 -153386#1 -153386#0 -152178 -152177#2 -152177#1 -152177#0 -153385#0 -152251 -153387#1 -153387#0 -152252 -153414#5 -153331#5 -153331#4 -153333#11 -153333#10 -153333#9 -153333#8 -153333#7 -153333#6 -153333#5 -153333#4 -153333#2 -153333#1 -153333#0 -153417#1 -153417#0 153415#14 153415#15 153415#16 152999 153001 152708#0 152708#1 152708#2 152708#3 152703#3 152703#4 152703#5 152705 152706 152669#1 152669#2 152669#3"/>
    </vehicle>
    <vehicle id="special_3-1_139" type="special" depart="18064" departLane="best" arrivalPos="random">
        <route edges="-153396#2 -153396#1 -153396#0 -152415#2 -152415#1 -152415#0 152414 -152539 152930#4 152413 152533 152329#1 152289 152857 152211 152538 152395 153643 152331#0 152331#1 152331#2 152331#3 152331#4 152331#5 152331#6 152331#7 152167 -153008#3 -153008#2 -153008#1 -153008#0 -152901#1 -152901#0 152403#0 152403#1 152403#2 152940#0 152940#1 152940#2 152421#1 152309 152319#3 152140 152138#0 152138#1 152138#2 152138#3 152138#4 152138#5 152823#0 152828 152820#2 152820#3 152820#4 152818#0 152818#1 152818#2 152818#3"/>
    </vehicle>
    <vehicle id="special_2-1_113" type="special" depart="18074" departLane="best" arrivalPos="random">
        <route edges="153440 152803 152784 153554#2 153554#3 153554#0 152947#0 152947#1"/>
    </vehicle>
    <vehicle id="special_1-3_228" type="special" depart="18098" departLane="best" arrivalPos="random">
        <route edges="152465#0 152465#1 152962#4 152306 152313#0 152313#1 152313#2 -152310 152319#1 152319#2 -152309 152282 152532 -152331#7 -152331#6 -152331#5 -152331#4 -152331#3 -152331#2 -152331#1 -152331#0 153639 152407 -153009#6 -153458#6 -153458#5 -153458#4 -153458#3 -153458#2 -153458#1 -153458#0 -153453#4 -153453#3 -153453#2 -153453#1 -153453#0 -153454#1 153459"/>
    </vehicle>
    <vehicle id="special_1-1_275" type="special" depart="18130" departLane="best" arrivalPos="random">
        <route edges="152769#0 152769#1 152769#2 152769#3 152941#5 -152704#1 -152704#0 152669#1 152669#2 152669#3 152669#4 152669#5 152669#6 152669#7 152669#8 152669#9 152669#10 152669#11 152607#1 152607#2 152170 152224 152455 152456#1 152456#2 152617#0 152617#1 152617#2 -152320 -152967#1 152457 152458#0 152458#1"/>
    </vehicle>
    <vehicle id="special_1-3_154" type="special" depart="18135" departLane="best" arrivalPos="random">
        <route edges="152298#1 152969 152818#2 152818#3 152833#0 152833#1 152833#2 152306 152313#0 152313#1 152313#2 -152310 152319#1 152319#2 -152309 152282 152532 -152331#7 -152331#6 -152331#5 -152331#4 -152331#3 -152331#2 -152331#1 -152331#0 153639 152407 -153009#6 -153458#6 -153458#5 -153458#4 -153458#3 -153458#2 -153458#1 -153458#0 153453#5 153437#0 153437#1 153437#2 153437#3 152418#1 152415#0 152415#1 152415#2 152415#3 152253 153397 152254 -153438 153438 -152254 -153397 -152253 -152415#3"/>
    </vehicle>
    <vehicle id="special_3-1_16" type="special" depart="18164" departLane="best" arrivalPos="random">
        <route edges="152415#3 152253 153397 152254 -153438 153438 -152254 -153397 -152253 -152415#3 -152415#2 -152415#1 -152415#0 152414 -152539 152930#4 152413 152533 152329#1 152289 152857 152211 152538 152395 153643 152331#0 152331#1 152331#2 152331#3 152331#4 152331#5 152331#6 152331#7 152167 -153008#3 -153008#2 -153008#1 -153008#0 -152901#1 -152901#0 152403#0 152403#1 152403#2 152940#0 152940#1 152940#2 152421#1 152309 152319#3 152140 152138#0 152138#1 152138#2 152138#3 152138#4 152138#5 152823#0 152828 152820#2 152820#3 152389#0 152389#1 152779 152383 152773 -152771 152948 -152779"/>
    </vehicle>
    <vehicle id="special_1-3_7" type="special" depart="18174" departLane="best" arrivalPos="random">
        <route edges="152138#5 152138#6 152138#7 152138#0 152139 152970 -152271 -152420 -152960 153478#1 153478#2 153478#3 153478#5 153478#6 153478#7 153478#8 153478#9 153478#10 153478#11 153478#12 153478#13 153478#14 153478#15 153478#16 153478#17 153478#18 153478#19 153478#20 153478#22 153478#23 153478#24 153478#25 153478#26 -152304 -153344 -152303 -153479#1 -153479#0 -152258 -152929"/>
    </vehicle>
    <vehicle id="special_1-2_250" type="special" depart="18179" departLane="best" arrivalPos="random">
        <route edges="-152939#4 -152939#3 -152939#2 -152939#1 -152939#0 152967#0 152967#1 152320 -152617#2 -152617#1 -152617#0 152456#3 152456#4 -152455 -152224 -152170 -152607#2 -152607#1 -152607#0 -152669#10 -152669#9 -152669#8 -152669#7 -152669#6 -152669#5 -152669#4 152716 152175#0 152175#1 -152703#5 -152703#4 -152703#3 -152708#3 -152708#2 -152708#1 -152708#0 -153001 -152999 -153415#16 -153415#15 -153415#14 -153415#13 -153415#12 -153415#11 -153415#10 -153415#9 -153415#8 -153415#7 -153415#6 -153415#5 -153415#4 -153415#3 -153415#1 -153415#0 153401#0 153401#1 152935#4 152935#0 -153376#14 -153376#13 -153376#12 -153376#11 -153376#10 -153376#9 -153376#8 -153376#7 -153376#6 -153376#5"/>
    </vehicle>
    <vehicle id="special_3-1_88" type="special" depart="18210" departLane="best" arrivalPos="random">
        <route edges="-153461#0 -152257 153462 -153462 152257 153461#0 153461#1 153460#1 153007#0 153007#1 152236 153340 153643 152331#0 152331#1 152331#2 152331#3 152331#4 152331#5 152331#6 152331#7 152167 -153008#3 -153008#2 -153008#1 -153008#0 -152901#1 -152901#0 152403#0 152403#1 152403#2 152940#0 152940#1 152940#2 152421#1 152309 152319#3 152140 152138#0 152138#1 152138#2 152138#3 152138#4 152138#5 152823#0 152823#1 152823#2 152961#4 -152819#3 -152819#2 -152819#1 -152819#0 -152778 152765 152762 152801 152805 -152808 -152790"/>
    </vehicle>
    <vehicle id="special_1-3_96" type="special" depart="18211" departLane="best" arrivalPos="random">
        <route edges="152939#4 -152608#6 -152608#5 -152608#4 -152608#3 -152608#2 -152619 -152612 152604 152609 152364#3 152364#0 152364#1 -152671#1 -152671#0 -152227 -152291 -152763 -152292 -152802 -152293 -152796 152294 152386 -152207 152463 152312 152313#2 -152310 152319#1 152319#2 -152309 152282 152532 -152331#7 -152331#6 -152331#5 -152331#4 -152331#3 -152331#2 -152331#1 -152331#0 153639 153636#1 153638#1 153004#0 153004#1 -153460#1 -153460#0 -153461#0 -152257"/>
    </vehicle>
    <vehicle id="special_1-2_231" type="special" depart="18268" departLane="best" arrivalPos="random">
        <route edges="153641 152876#4 152876#5 152876#0 152876#1 152876#2 153640 152298#0 152298#0-AddedOffRampEdge 152298#1 152969 152818#2 152818#3 152818#4 152818#5 -152812#2 -152812#1 -152806 152941#1 152941#2 152548 -152769#2 -152782 -152708#3 -152708#2 -152708#1 -152708#0 -153001 -152999 -153415#16 -153415#15 -153415#14 153417#0 153417#1 153333#0 153333#1 153333#2 153333#4 153333#5 153333#6 153333#7 153333#8 153333#9 153333#10 153333#11 153331#4 153331#5 153414#5 152252 153387#0 153387#1 152251 153385#0 153385#1 153385#2 153025#0 153025#1 153025#2 153025#3 153376#1 153376#2 153376#3 153376#4 153376#5"/>
    </vehicle>
    <vehicle id="special_1-2_98" type="special" depart="18284" departLane="best" arrivalPos="random">
        <route edges="152812#1 152812#2 152789#0 152789#1 152789#2 152764 152290 152664 152656#2 152656#3 152657 152671#0 152671#1 152364#2 -152609 -152171#1 -152171#0 -152225 152589#0 152589#1 152589#2 152589#3 152221 152581#0 152581#1 152349 152580#1 -152219 153380#0 153380#1 153380#2 153378 152222 -153482#7 -153482#6 -153482#5 -153482#4 -153482#3 -153482#2 -153482#1 -153482#0 -153374#1 -153328#4 -153328#3 -153328#2 -153328#1 -153328#0 -153362#0 153364#1 -152242 -153353 -153352 -152243 153354 152244 153349#0 153349#1 153349#2"/>
    </vehicle>
    <vehicle id="special_2-1_253" type="special" depart="18294" departLane="best" arrivalPos="random">
        <route edges="-152541#1 -152353#2 -152601 -153025#1 -153025#0 -153385#2 -153385#1 -153385#0 -152251 -153387#1 -153387#0 -152252 -153414#5 -153331#5 -153331#4 -153333#11 -153333#10 -153333#9 -153333#8 -153333#7 -153333#6 -153333#5 -153333#4 -153333#2 -153333#1 -153333#0 -153417#1 -153417#0 153415#14 153415#15 153415#16 152999 153001 152708#0 152708#1 152708#2 152708#3 152703#3 152703#4 152703#5 152705 152706 152704#0 -152690#2 -152690#1 -152950#1"/>
    </vehicle>
    <vehicle id="special_3-1_274" type="special" depart="18335" departLane="best" arrivalPos="random">
        <route edges="152305 152929 152258 153479#0 153479#1 152303 153344 152304 -153478#26 -153478#25 -153478#24 -153478#23 -153478#22 -153478#20 -153478#19 -153478#18 -153478#17 -153478#16 -153478#15 -153478#14 -153478#13 -153478#12 -153478#11 -153478#10 -153478#9 -153478#8 -153478#7 -153478#6 -153478#5 -153478#3 -153478#2 -153478#1 -153478#0 152420 152271 152421#0 152421#1 152309 152319#3 152319#4 152310 152313#3 -152306 -152833#2 -152833#1 -152833#0 152818#4 -152813 152387#0"/>
    </vehicle>
    <vehicle id="special_2-1_14" type="special" depart="18368" departLane="best" arrivalPos="random">
        <route edges="-152560#2 -152560#1 -152560#0 153374#1 153482#0 153482#1 153482#2 153482#3 153482#4 153482#5 153482#6 153482#7 152587#1 152351 152584#0 152584#1 152584#2 152584#3 152584#4 152456#2 152456#3 152456#4 -152455 -152224 -152170 -152607#2 -152607#1 -152607#0 -152669#10 -152669#9 -152669#8 -152669#7 -152669#6 -152669#5 -152669#4 -152669#3 -152669#2 -152669#1 152704#0 152704#1 -152777#5 -152777#4 -152777#3 -152777#2 -152777#0 152812#0 152812#1 152812#2 152822 152962#1 152962#2 152962#3 152962#4 152962#5 152962#6 152962#7 152962#8 152962#10 152961#2 152961#3 152961#4 -152819#3 -152819#2 -152819#1 -152819#0 -152778 152765 152762 152801 152805 -152867 -152949"/>
    </vehicle>
    <vehicle id="special_3-1_288" type="special" depart="18370" departLane="best" arrivalPos="random">
        <route edges="153397 152254 -153438 153438 -152254 -153397 -152253 -152415#3 -152415#2 -152415#1 -152415#0 152414 152446#1 -153437#3 -153437#2 -153437#1 -153437#0 153453#6 153453#7 153435#1 152736#0 -152738#2 -152738#1 -152738#0 153393#0 153393#1 153394#1 153389#1 153389#2 -152630#1 -152630#0 -153386#1 -153386#0 -152178 -152177#2 -152177#1 -152177#0 -153385#0 -152251 -153387#1 -153387#0 -152252 -153414#5 -153331#5 -153331#4 -153333#11 -153333#10 -153333#9 -153333#8 -153333#7 -153333#6 -153333#5 -153333#4 -153333#2 -153333#1 -153333#0 -153417#1 -153417#0 153415#14 153415#15 153415#16 152999 153001 152708#0 152708#1 152708#2 152708#3 152782 152769#2 152769#3 152718 152382 -152674#2 -152674#1 -152652#0 -152679#5 -152679#4"/>
    </vehicle>
    <vehicle id="special_1-2_94" type="special" depart="18395" departLane="best" arrivalPos="random">
        <route edges="-152515#1 -152608#9 -152608#8 -152608#7 -152608#6 -152608#5 -152608#4 -152608#3 -152608#2 -152619 -152612 152604 152609 152364#3 152364#0 152364#1 -152671#1 -152671#0 -152227 -152291 -152763 -152292 -152802 -152293 -152796 152294 152386 -152207 152463 152312 152313#2 -152310 152319#1 152319#2 -152309 152282 152532 -152331#7 -152331#6 152409"/>
    </vehicle>
    <vehicle id="special_1-3_113" type="special" depart="18406" departLane="best" arrivalPos="random">
        <route edges="152459#0 152459#1 152459#2 152166#1 152537#0 152537#1 152537#2 152537#4 152537#6 152656#4 152672#3 152672#4 152283 -152291 -152763 -152292 -152802 -152293 -152796 152294 152386 -152207 152463 152312 152313#2 -152310 152319#1 152319#2 152319#3 152140 152138#0 152139 152970 -152271 -152420 -152960 153478#1 153478#2 153478#3 153478#5 153478#6 153478#7 153478#8 153478#9 153478#10 153478#11 153478#12 153478#13 153478#14 153478#15 153478#16 153478#17 153478#18 153478#19 153478#20 153478#22 153478#23 153478#24 153478#25 153478#26 -152304 -153344 -152303 -153479#1 -152905"/>
    </vehicle>
    <vehicle id="special_2-1_43" type="special" depart="18420" departLane="best" arrivalPos="random">
        <route edges="-152559#1 -152559#0 153557 -152467#0 152972#1 152579#2 152579#3 152579#4 152146 -152173 152346#0 152346#1 -152581#1 -152581#0 -152221 -152589#3 -152589#2 -152589#1 -152589#0 152225 152171#0 152171#1 152609 152364#3 152364#0 152364#1 -152671#1 -152671#0 -152227 -152291 -152763 -152292 -152802 -152293 -152796 152294 152386 -152207 152463 152312 152313#2 152313#3 -152306 -152833#2 -152833#1 -152833#0 152818#4 -152813 152387#0"/>
    </vehicle>
    <vehicle id="special_3-1_177" type="special" depart="18463" departLane="best" arrivalPos="random">
        <route edges="153459 153461#1 153460#1 153007#0 153007#1 152236 153340 153643 152331#0 152331#1 152331#2 152331#3 152331#4 152331#5 152331#6 152331#7 152167 152169#0 152169#1 152400#1 152400#2 152903#0 152903#1 152990 152816#0 152816#1 152816#2 152816#3 152816#4 152816#5 152816#6 152816#7 152816#8 152816#9 152816#10 152816#11 152761 152231 152787#0 152787#1 152787#2 152168 152971#0"/>
    </vehicle>
    <vehicle id="special_1-2_233" type="special" depart="18473" departLane="best" arrivalPos="random">
        <route edges="152816#2 152816#3 152816#4 152816#5 152816#6 152816#7 152816#8 152816#9 152816#10 152816#11 152761 152231 152787#0 152821 152946#2 152235 152703#0 152703#1 152703#2 152703#3 152703#4 152703#5 152705 152706 152669#1 152669#2 152669#3 152669#4 152669#5 152669#6 152669#7 152669#8 152669#9 152669#10 152669#11 152607#1 152607#2 152170 152224 152455 152456#1 -152584#4 -152584#3 -152584#2 -152584#1 -152584#0 152578 152220 152347#1 152222 -153482#7 -153482#6 -153482#5 -153482#4 -153482#3 -153482#2 -153482#1 -153482#0 -153374#1 -153374#0 153368#0 153368#1"/>
    </vehicle>
    <vehicle id="special_1-3_51" type="special" depart="18505" departLane="best" arrivalPos="random">
        <route edges="-152399#3 -152399#2 152648 -152299 -152875#3 -152875#2 -152875#1 -152875#0 152985 152984#3 152984#4 152975 -152897#1 -153478#0 152420 152271 152421#0 152421#1 152282 152532 -152331#7 -152331#6 -152331#5 -152331#4 -152331#3 -152331#2 -152331#1 -152331#0 153639 153636#1 153638#1 153004#0 153004#1 -153460#1 -153460#0 -153461#0 -152257 153462 -153462 152257 153461#0 153461#1"/>
    </vehicle>
    <vehicle id="special_3-1_163" type="special" depart="18508" departLane="best" arrivalPos="random">
        <route edges="153459 153461#1 153460#1 153007#0 153007#1 152236 153340 153643 152331#0 152331#1 152331#2 152331#3 152331#4 152331#5 152331#6 152331#7 152167 152169#0 152169#1 152400#1 152400#2 152903#0 152903#1 152990 152816#0 152816#1 152816#2 152816#3 152816#4 152816#5 152816#6 152816#7 152816#8 152816#9 152816#10 152816#11 152761 152231 152787#0 152821 152946#2 152235 152703#0 152769#0 152769#1 152769#2 -152548 -152941#2 -152941#1 -152941#0"/>
    </vehicle>
    <vehicle id="special_3-1_8" type="special" depart="18509" departLane="best" arrivalPos="random">
        <route edges="152412 152533 152329#1 152289 152857 152211 152538 152395 153643 152331#0 152331#1 152331#2 152331#3 152331#4 152331#5 152331#6 152331#7 152167 152169#0 152169#1 152400#1 152400#2 152903#0 152903#1 152990 152816#0 152816#1 152816#2 152816#3 152816#4 152816#5 152816#6 152816#7 152816#8 152816#9 152816#10 152816#11 152761 152231 152787#0 152821 152946#2 152235 152703#0 152703#1 152703#2 152703#3 152703#4 152703#5 152705 152707#0"/>
    </vehicle>
    <vehicle id="special_2-1_194" type="special" depart="18514" departLane="best" arrivalPos="random">
        <route edges="153467#2 153464#2 153464#3 153464#4 153464#5 -153478#11 -153478#10 -153478#9 -153478#8 -153478#7 -153478#6 -153478#5 -153478#3 -153478#2 -153478#1 -153478#0 152420 152271 152421#0 152421#1 152309 152319#3 152319#4 152310 152313#3 -152306 -152833#2 -152833#1 -152833#0 152818#4 152818#5 -152812#2 -152812#1 -152806 152941#1 152941#2 -152783"/>
    </vehicle>
    <vehicle id="special_1-1_268" type="special" depart="18519" departLane="best" arrivalPos="random">
        <route edges="-152901#0 152403#0 152403#1 152403#2 152403#3 152901#0 152901#1 152901#2 -152872#4 -152872#3 -152872#2 -152872#1 -152872#0 153554#3 153554#0 153554#1 -152784 -152803 152816#9 152816#10"/>
    </vehicle>
    <vehicle id="special_1-3_292" type="special" depart="18519" departLane="best" arrivalPos="random">
        <route edges="152348#0 152348#1 152537#0 152537#1 152537#2 152537#4 152537#6 152656#4 152672#3 152672#4 152283 -152291 -152763 -152292 -152802 -152293 -152796 152294 152386 -152207 152463 152312 152313#2 -152310 152319#1 152319#2 -152309 152282 152532 -152331#7 -152331#6 -152331#5 -152331#4 -152331#3 -152331#2 -152331#1 -152331#0 153639 152407 -153009#6 -153458#6 -153458#5 -153458#4 -153458#3 -153458#2 -153458#1 -153458#0 -153453#4 -153453#3 -153453#2 -153453#1 -153453#0 -153454#1 -153454#0"/>
    </vehicle>
    <vehicle id="special_1-1_21" type="special" depart="18526" departLane="best" arrivalPos="random">
        <route edges="152459#0 152459#1 152459#2 152166#1 152537#0 152537#1 152537#2 152537#4 152537#6 152656#4 152672#3 152672#4 152283 -152291 -152763 -152292 -152802 -152293 -152796 152294 152386 -152207 152463 152312 152313#2 152313#3 -152306 152962#5 152962#6 152962#7 152962#8 -153275#2 -153275#1 -153275#0"/>
    </vehicle>
    <vehicle id="special_1-3_192" type="special" depart="18530" departLane="best" arrivalPos="random">
        <route edges="-152399#3 -152399#2 152648 -152299 -152875#3 -152875#2 -152875#1 -152875#0 152985 152984#3 152984#4 152975 -152897#1 153478#1 153478#2 153478#3 153478#5 153478#6 153478#7 153478#8 153478#9 153478#10 153478#11 153478#12 153478#13 153478#14 153478#15 153478#16 153478#17 153478#18 153478#19 153478#20 153478#22 153478#23 153478#24 153478#25 153478#26 -152304 -153344 -152303 -153479#1 -153479#0 -152258 -152929"/>
    </vehicle>
    <vehicle id="special_2-1_59" type="special" depart="18537" departLane="best" arrivalPos="random">
        <route edges="153478#20 152921#0 -152924 153012#1 -153478#22 -153478#20 -153478#19 -153478#18 -153478#17 -153478#16 -153478#15 -153478#14 -153478#13 -153478#12 -153478#11 -153478#10 153010#0 153010#1 153010#2 153010#3 153010#4 153010#5 153010#6 153010#7 152403#2 152403#3 152901#0 152901#1 152901#2 -152872#4 -152872#3 -152872#2 -152872#1 -152872#0 153554#3 153554#0 152947#0 152947#1 152947#2 152816#11 152761 152231 152787#0 152821 152946#2 152235 152703#0 152703#1 152703#2 -152708#3 -152708#2 -152708#1 -152708#0 -153001 -152999 -153415#16 -153415#15 -153415#14 -153415#13 -153415#12 -153415#11 -153415#10 -153415#9 -153415#8"/>
    </vehicle>
    <vehicle id="special_3-1_245" type="special" depart="18566" departLane="best" arrivalPos="random">
        <route edges="152415#3 152253 153397 152254 -153438 153438 -152254 -153397 -152253 -152415#3 -152415#2 -152415#1 -152415#0 152414 152446#1 -153437#3 -153437#2 -153437#1 -153437#0 153453#6 153453#7 153435#1 152736#0 -152738#2 -152738#1 -152738#0 153393#0 153393#1 153394#1 153389#1 153389#2 -152630#1 -152630#0 -153386#1 -153386#0 -152178 -152177#2 -152177#1 -152177#0 -153385#0 -152251 -153387#1 -153387#0 -152252 -153414#5 -153331#5 -153331#4 -153333#11 -153333#10 -153333#9 -153333#8 -153333#7 -153333#6 -153333#5 -153333#4 -153333#2 -153333#1 -153333#0 -153417#1 -153417#0 153415#14 153415#15 153415#16 152999 153001 152708#0 152708#1 152708#2 152708#3 152782 152769#2 152769#3 152718 152382 -152674#2 -152674#1 -152652#0 -152679#5 -152679#4 -152679#3 -152679#2 -152679#1 -152679#0 152656#0 152656#1 152656#2 152536#0 152536#2"/>
    </vehicle>
    <vehicle id="special_1-1_78" type="special" depart="18569" departLane="best" arrivalPos="random">
        <route edges="152386 -152207 152463 152312 152313#2 152313#3 -152306 152962#5 152962#6 152962#7 152962#8 152962#10 152961#2 152961#3 152961#4 -152819#3 -152819#2 -152819#1 -152819#0 -152778 152765 -152774 -152775 -152861 -152878 -152890 152949 152867"/>
    </vehicle>
    <vehicle id="special_2-1_66" type="special" depart="18574" departLane="best" arrivalPos="random">
        <route edges="-152933#4 -152933#3 -152933#2 -152933#1 153009#0 153009#2 153009#3 153009#4 153009#5 153009#6 152408 153638#1 153004#0 152840 153007#1 152236 153340 153643 152331#0 152331#1 152331#2 152331#3 152331#4 152331#5 152331#6 152331#7 152167 152169#0 152169#1 152400#1 152400#2 152903#0 152903#1 152321 152404 -152960 152897#1 152897#2 152984#0 152984#1 152984#2 152984#3 -152902#1 -152902#0 152977#3 152977#4 152885#0"/>
    </vehicle>
    <vehicle id="special_1-1_299" type="special" depart="18583" departLane="best" arrivalPos="random">
        <route edges="-152660#1 152673 -152673 152660#1 152537#6 152656#4 152672#3 152679#0 152679#1 152679#2 152679#3 152679#4 152679#5 152652#0 152674#1 152674#2 -152777#0 152812#0 152812#1 152812#2"/>
    </vehicle>
    <vehicle id="special_1-3_55" type="special" depart="18607" departLane="best" arrivalPos="random">
        <route edges="-152872#3 -152872#2 -152872#1 -152872#0 153554#3 153554#0 153554#1 153554#2 152872#0 152872#1 152872#2 152872#3 152872#4 152872#5 153008#0 153008#1 153008#2 153008#3 -152167 -152331#7 -152331#6 -152331#5 -152331#4 -152331#3 -152331#2 -152331#1 -152331#0 153639 153636#1 153638#1 153004#0 153004#1 -153460#1 152905"/>
    </vehicle>
    <vehicle id="special_1-1_262" type="special" depart="18630" departLane="best" arrivalPos="random">
        <route edges="152404 152420 152271 152421#0 152421#1 152309 152319#3 152319#4 152310 152313#3 152313#0 152272 152425 152207 -152386 -152294 152796 152293 152802 152292 152763 152291 152287 152671#0 152671#1 152364#2 -152609 -152171#1 -152171#0 -152225 152589#0 152589#1 152615 -152615 -152589#1 -152589#0"/>
    </vehicle>
    <vehicle id="special_1-2_123" type="special" depart="18674" departLane="best" arrivalPos="random">
        <route edges="152651#3 152651#4 152651#5 153408#0 153408#1 153408#2 152942 152686 152175#1 -152703#5 -152703#4 -152703#3 -152708#3 -152708#2 -152708#1 -152708#0 -153001 -152999 -153415#16 -153415#15 -153415#14 153417#0 153417#1 153333#0 153333#1 153333#2 153333#4 153333#5 153333#6 153333#7 153333#8 153333#9"/>
    </vehicle>
    <vehicle id="special_2-1_286" type="special" depart="18708" departLane="best" arrivalPos="random">
        <route edges="153412#5 153412#6 153412#7 153412#8 153412#9 -153333#2 -153333#1 -153333#0 -153417#1 -153417#0 153415#14 153415#15 153415#16 152999 153001 152708#0 152708#1 152708#2 152708#3 152782 152769#2 152769#3 152718 152382 -152674#2 -152674#1 -152652#0 -152679#5 -152679#4 -152679#3 -152679#2 -152679#1 -152679#0 152656#0 152656#1 152656#2 152536#0 152536#2"/>
    </vehicle>
    <vehicle id="special_2-1_189" type="special" depart="18715" departLane="best" arrivalPos="random">
        <route edges="-153442#5 153038 -153038 153442#5 153442#6 -152256#1 -152256#0 -153425#4 -153425#3 153412#0 153412#1 153412#2 153412#3 153412#4 153412#5 153412#6 153412#7 153412#8 153412#9 153333#4 152998#0 152998#2 152998#3 152998#4 152998#5 152998#6 152998#7 152998#8 -153401#0 152651#0 152651#1 152651#2 152651#3 152651#4 152651#5 153408#0 153408#1 153408#2 152681 152680 152544 152649#0 152650#0 152650#1 152650#2 152650#3 152650#4 152650#5 152650#6 152354#2 152354#3 -152515#1 -152608#9 -152608#8 -152608#7 -152939#4 -152939#3 -152939#2 -152939#1 -152939#0 152967#0 152457 152458#0 152458#1"/>
    </vehicle>
    <vehicle id="special_1-1_71" type="special" depart="18730" departLane="best" arrivalPos="random">
        <route edges="152610 -152608#7 -152608#6 -152608#5 -152608#4 -152608#3 -152608#2 -152619 -152612 -152607#2 -152607#1 -152607#0 -152669#10 -152669#9 -152669#8 -152669#7 -152669#6 -152669#5 -152669#4 152716 152175#0 152175#1 -152703#5 -152703#4 -152703#3 -152703#2 -152703#1 152769#0"/>
    </vehicle>
    <vehicle id="special_1-2_203" type="special" depart="18752" departLane="best" arrivalPos="random">
        <route edges="152453 152460#0 152460#1 152460#2 152460#3 -152453 152876#1 152876#2 153640 152298#0 152298#0-AddedOffRampEdge 152298#1 152969 152818#2 152818#3 152818#4 152818#5 -152812#2 -152812#1 -152806 152941#1 152941#2 152548 -152769#2 -152769#1 -152769#0 -152703#0 152230 152945#0 152945#1 -152816#11 -152816#10 -152816#9 -152816#8 -152814#5 -152814#4 -152814#3 -152814#2 -152814#1 -152814#0"/>
    </vehicle>
    <vehicle id="special_1-1_295" type="special" depart="18774" departLane="best" arrivalPos="random">
        <route edges="-152833#1 152387#1 -152785#1 -152785#0 -152807#1 152833#2 152306 152313#0 152313#1 152313#2 -152310 152319#1 152319#2 -152309 152282 152532 -152331#7 -152331#6 152409 -152409 152331#6 152331#7 152167 152169#0 152169#1 152400#1 152400#2 152903#0 152903#1 152321 152404"/>
    </vehicle>
    <vehicle id="special_1-3_158" type="special" depart="18793" departLane="best" arrivalPos="random">
        <route edges="152649#0 152649#1 152649#2 153407#0 153407#1 153407#2 153407#3 153408#0 153408#1 153408#2 152942 152686 152175#1 -152703#5 -152703#4 -152703#3 -152703#2 -152703#1 -152703#0 152230 152945#0 152945#1 -152816#11 -152816#10 -152816#9 -152816#8 -152816#7 -152816#6 -152816#5 -152816#4 -152816#3 -152816#2 -152816#1 -152816#0 152991 -152903#1 -152903#0 152400#3 152400#0 -152169#1 -152169#0 -152167 -152331#7 -152331#6 -152331#5 -152331#4 -152331#3 -152331#2 -152331#1 -152331#0 153639 153636#1 153638#1 153004#0 153004#1 -153460#1 -153460#0 -153461#0 -152257"/>
    </vehicle>
    <vehicle id="special_2-1_7" type="special" depart="18795" departLane="best" arrivalPos="random">
        <route edges="153481#3 152915#0 152915#1 152473#0 152473#1 -152473#1 -152473#0 -152915#1 -152915#0 -153481#3 -153481#2 -153481#1 -153481#0 -153478#25 -153478#24 -153478#23 -153478#22 -153478#20 -153478#19 -153478#18 -153478#17 -153478#16 -153478#15 -153478#14 -153478#13 -153478#12 -153478#11 -153478#10 -153478#9 -153478#8 -153478#7 -153478#6 -153478#5 -153478#3 -153478#2 -153478#1 -153478#0 152420 152271 152421#0 152421#1 152309 152319#3 152319#4 152310 152313#3 152313#0 152272 152425 152207 -152386 -152294 152796 152293 152802 152292 152763 152291 152287 152671#0 152672#0 152672#1"/>
    </vehicle>
    <vehicle id="special_1-1_124" type="special" depart="18816" departLane="best" arrivalPos="random">
        <route edges="152832#1 152832#2 152838#5 152838#6 152816#3 152816#4 152816#5 152816#6 152816#7 152816#8 152816#9 152816#10 152816#11 152761 152231 152787#0 152821 152946#2 152235 152703#0 152703#1 152703#2 152703#3 152703#4 152703#5 152705 152706 152669#1 152669#2 152669#3 152669#4 152669#5 152669#6 152669#7 152669#8 152669#9 152669#10 152669#11 152607#1"/>
    </vehicle>
    <vehicle id="special_2-1_146" type="special" depart="18825" departLane="best" arrivalPos="random">
        <route edges="-152904#5 -152904#4 -152904#3 -152904#2 -152904#1 -152904#0 152403#1 152403#2 152403#3 152901#0 152901#1 152901#2 -152872#4 -152834#6 -152834#5 -152834#4 -152834#3 -152834#2 -152834#1"/>
    </vehicle>
    <vehicle id="special_1-3_45" type="special" depart="18875" departLane="best" arrivalPos="random">
        <route edges="152536#6 152536#7 152537#0 152537#1 152537#2 152537#4 152537#6 152656#4 152672#3 152672#4 152283 -152291 -152763 -152292 -152802 -152293 -152796 152294 152386 -152207 152463 152312 152313#2 -152310 152319#1 152319#2 -152309 152282 152532 -152331#7 -152331#6 -152331#5 -152331#4 -152331#3 -152331#2 -152331#1 -152331#0 153639 152407 -153009#6 -153458#6 -153458#5 -153458#4 -153458#3 -153458#2 -153458#1 -153458#0 153453#5 153437#0 153437#1 153437#2 153437#3 152418#1 152415#0 152415#1 152415#2 152415#3"/>
    </vehicle>
    <vehicle id="special_1-1_186" type="special" depart="18984" departLane="best" arrivalPos="random">
        <route edges="-152608#4 -152608#3 -152608#2 -152619 -152612 -152607#2 -152607#1 -152607#0 -152669#10 -152669#9 -152669#8 -152669#7 -152669#6 -152669#5 -152669#4 152716 152175#0 152175#1 -152703#5 -152703#4 -152703#3 -152703#2 -152703#1 -152703#0 152230 152945#0 152945#1 -152816#11 -152816#10 -152816#9 -152816#8"/>
    </vehicle>
    <vehicle id="special_2-1_218" type="special" depart="19016" departLane="best" arrivalPos="random">