<?xml version="1.0" encoding="UTF-8"?>

<!--
    Monaco SUMO Traffic (MoST) Scenario
    Copyright (C) 2019
    Lara CODECA

    This program is free software: you can redistribute it and/or modify
    it under the terms of the GNU General Public License as published by
    the Free Software Foundation, either version 3 of the License, or
    (at your option) any later version.

    This program is distributed in the hope that it will be useful,
    but WITHOUT ANY WARRANTY; without even the implied warranty of
    MERCHANTABILITY or FITNESS FOR A PARTICULAR PURPOSE.  See the
    GNU General Public License for more details.

    You should have received a copy of the GNU General Public License
    along with this program.  If not, see <http://www.gnu.org/licenses/>.
-->

<routes xmlns:xsi="http://www.w3.org/2001/XMLSchema-instance" xsi:noNamespaceSchemaLocation="http://sumo.dlr.de/xsd/routes_file.xsd">
    <vehicle id="special_1-1_171" type="special" depart="18001" departLane="best" arrivalPos="random">
        <route edges="152531#2 152531#4 152531#6 152650#4 152666#3 152673#0 152673#1 152673#2 152673#3 152673#4 152673#5 152646#0 152668#1 152668#2 -152377 -152712 -152935#4 -152777"/>
    </vehicle>
    <vehicle id="special_1-1_296" type="special" depart="18049" departLane="best" arrivalPos="random">
        <route edges="152673#0 152673#1 152673#2 152673#3 152673#4 152664#0 152664#1 152664#2 152710 152170#0 152170#1 -152697#5 -152697#4 -152697#3 -152697#2 -152697#1 152763#0"/>
    </vehicle>
    <vehicle id="special_1-2_268" type="special" depart="18049" departLane="best" arrivalPos="random">
        <route edges="-152965#0 152787 152792#0 152792#1 153545#2 152821#0 152821#1 152956#10 152955#2 152955#3 -152817#2 -152817#1 -152817#0 152133#6 152133#7 -152135 152314#4 152314#1 152314#2 -152304 152277 152526 -152326#5 -152326#4 -152326#3 -152326#2 -152326#1 -152326#0 153633 152401 -153003#6 -153452#6 -153452#5 -153452#4"/>
    </vehicle>
    <vehicle id="special_1-1_24" type="special" depart="18051" departLane="best" arrivalPos="random">
        <route edges="152855 152769 152768 -152759 152772 152813#0 152813#1 152813#2 152813#3 152955#5 152955#1 152955#2 152955#3 -152817#2 -152817#1 -152817#0 152133#6 152133#7 152133#0 152134 152964 152415#0 -152934#2 -152934#1 -152934#0 152398#3 152895#0 152895#1 152895#2 -152866#4 -152866#3 -152866#2 -152866#1 -152866#0 153548#3 153548#0 153548#1 153548#2 152866#0 152866#1"/>
    </vehicle>
    <vehicle id="special_1-1_37" type="special" depart="18067" departLane="best" arrivalPos="random">
        <route edges="152578#3 152578#4 152450#2 152450#3 152450#4 152450#1 -152578#4"/>
    </vehicle>
    <vehicle id="special_1-2_40" type="special" depart="18075" departLane="best" arrivalPos="random">
        <route edges="-152967#0 152704#1 -152702#2 -152702#1 -152702#0 -152995 -152993 -153409#16 -153409#15 -153409#14 153411#0 152678#1"/>
    </vehicle>
    <vehicle id="special_1-3_291" type="special" depart="18083" departLane="best" arrivalPos="random">
        <route edges="152304 152314#3 152135 152133#0 152134 152964 -152266 -152414 -152954 153472#1 153472#2 153472#3 153472#5 153472#6 153472#7 153472#8 153472#9 153472#10 153472#11 153472#12 153472#13 153472#14 153472#15 153472#16 153472#17 153472#18 153472#19 153472#20 153472#22 153472#23 153472#24 153472#25 153472#26 -152299 -153338 -152298 -153473#1 -152899"/>
    </vehicle>
    <vehicle id="special_3-1_263" type="special" depart="18107" departLane="best" arrivalPos="random">
        <route edges="153455#1 153454#1 153001#0 153001#1 152231 153334 153637 152326#0 152326#1 152326#2 152326#3 152326#4 152326#5 152162 -153002#3 -153002#2 -153002#1 -153002#0 152895#2 -152866#4 -152828#6 -152828#5 -152828#4 -152828#3 -152828#2 -152828#1 -152788#1 -152788#0"/>
    </vehicle>
    <vehicle id="special_1-1_60" type="special" depart="18131" departLane="best" arrivalPos="random">
        <route edges="152801#0 152801#1 152801#2 -152762#1 -152762#0 152956#7 152956#8 152956#10 152955#2 152955#3 152955#4 -152813#3 -152813#2 -152813#1 -152813#0 -152772 152856 152858 -152885 152862 152501 152932"/>
    </vehicle>
    <vehicle id="special_1-2_83" type="special" depart="18161" departLane="best" arrivalPos="random">
        <route edges="152468#0 152468#1 -152468#1 -152468#0 -152672#2 -152672#1 -152672#0 152673#4 152673#5 152646#0 152668#1 152668#2 -152377 -152712 -152763#3 -152763#2 -152776 -152702#3 -152702#2 -152702#1 -152702#0 -152995 -152993 -153409#16 -153409#15 -153409#14 153411#0 153411#1 153411#2 153411#3 153411#4 153411#5 -153406#6 -153406#5 -153406#4 -153406#3 -153406#2 -153406#1 -153406#0 -153419#2 -153419#1 -153417#4 -153417#3 -153417#2 152365"/>
    </vehicle>
    <vehicle id="special_3-1_34" type="special" depart="18196" departLane="best" arrivalPos="random">
        <route edges="-153453 153448#1 153448#2 153447#1 153447#2 153447#3 153447#4 153452#0 153452#1 153452#2 153452#3 153452#4 153452#5 153452#6 153003#6 152402 153632#1 152998#0 152834 153001#1 152231 153334 153637 152326#0 152326#1 152326#2 152326#3 152326#4 152326#5 152162 -153002#3 -153002#2 -153002#1 -153002#0 152895#2 -152866#4 -152828#6 -152828#5 -152828#4 -152828#3 -152828#2 -152828#1 -152788#1 -152788#0 -152819#3 -152819#2"/>
    </vehicle>
    <vehicle id="special_1-1_272" type="special" depart="18203" departLane="best" arrivalPos="random">
        <route edges="152604 -152602#7 -152602#6 -152602#5 -152602#4 -152602#3 -152602#2 -152613 -152606 152598 152603 152359#3 152359#0 152359#1 -152665#1 152666#0 152666#1 152666#2 152666#3 152650#0 152650#1 152650#2 152530#0 152530#2 152530#4 152530#5 152530#6"/>
    </vehicle>
    <vehicle id="special_1-3_260" type="special" depart="18205" departLane="best" arrivalPos="random">
        <route edges="152888#1 -152296 152887#0 152887#1 152395#0 -152164#1 -152164#0 -152162 -152326#5 -152326#4 -152326#3 -152326#2 -152326#1 -153475#11 -153475#9 -153475#8 -153475#7 -153475#6 -153475#5 -153475#3 -153475#2 -153475#1 -153475#0 153472#26 -152299 -153338 -152298 -153473#1 -152899"/>
    </vehicle>
    <vehicle id="special_1-2_273" type="special" depart="18245" departLane="best" arrivalPos="random">
        <route edges="152766 -152646#1 152668#1 152668#2 -152377 -152712 -152763#3 -152763#2 -152776 -152702#3 -152702#2 -152702#1 -152702#0 -152995 -152993 -153409#16 -153409#15 -153409#14 153411#0 153411#1 153327#0 153327#1 153327#2 153327#4 153327#5 153327#6 153327#7 153327#8 153327#9 153327#10 153327#11"/>
    </vehicle>
    <vehicle id="special_1-3_286" type="special" depart="18294" departLane="best" arrivalPos="random">
        <route edges="152895#0 152895#1 153002#0 153002#1 153002#2 153002#3 -152162 -152326#5 -152326#4 -152326#3 -152326#2 -152326#1 -152326#0 153633 153630#1 153632#1 152998#0 152998#1 -153454#1 -153454#0 -153455#0 -152252 153456 -153456 152252 153455#0 153455#1"/>
    </vehicle>
    <vehicle id="special_1-2_181" type="special" depart="18298" departLane="best" arrivalPos="random">
        <route edges="152316 152399 152414 152266 152415#0 152415#1 152277 152526 -152326#5 -152326#4 -152326#3 -152326#2 -152326#1 -152326#0 153633 152401 -153003#6 -153452#6 -153452#5 -153452#4 -153452#3 -153452#2 -153452#1 -153452#0 153447#5 153447#6 153447#7 153429#1 153420#1 152620#0 -152738 152738 -152620#0"/>
    </vehicle>
    <vehicle id="special_3-1_42" type="special" depart="18346" departLane="best" arrivalPos="random">
        <route edges="-152899 153454#1 153001#0 153001#1 152231 153334 153637 152326#0 152326#1 152326#2 152326#3 152326#4 152326#5 152162 152164#0 152164#1 152395#1 152395#2 152897#0 152897#1 152984 152810#0 152810#1 152810#2 152810#3 152810#4 152810#5 152810#6 152810#7 152810#8 152810#9 152810#10 152810#11 152755 152226 152781#0 152815 152940#2 152230 152697#0 152697#1 152697#2 152697#3 152697#4 152697#5 152699 152701#0 152701#1 152171 152674 152538 152643#0 152644#0 152644#1 152644#2 152644#3 152644#4 152644#5 152644#6 152349#2 152349#3 -152509#1 -152602#9 -152602#8 -152602#7 -152933#4 -152591#1 -152591#0 152591#0 152591#1 152933#4"/>
    </vehicle>
    <vehicle id="special_3-1_46" type="special" depart="18360" departLane="best" arrivalPos="random">
        <route edges="153448#0 153448#1 153448#2 153447#1 153447#2 153447#3 153447#4 153447#5 153447#6 153447#7 153429#1 152730#0 -152732#2 -152732#1 -152732#0 153387#0 153387#1 153388#1 153383#1 153383#2 -152624#1 -152624#0 -153380#1 -153380#0 -152173 -152172#2 -152172#1 -152172#0 -153379#0 -152246 -153381#1 -153381#0 -152247 -153408#5 -153325#5 -153325#4 -153327#11 -153327#10 -153327#9 -153327#8 -153327#7 -153327#6 -153327#5 -153327#4 -153327#2 -153327#1 -153327#0 -153411#1 -153411#0 153409#14 153409#15 153409#16 152993 152995 152994 152705#1 152689#0 152689#1 -152487#5 -152487#3 -152487#2 -152487#1 152695"/>
    </vehicle>
    <vehicle id="special_1-2_262" type="special" depart="18411" departLane="best" arrivalPos="random">
        <route edges="-152394#3 -152394#2 -152394#1 -152394#0 152454#3 -152447 152870#1 152870#2 153634 152293#0 152293#0-AddedOffRampEdge 152293#1 152963 152812#2 152812#3 152812#4 152812#5 -152806#2 -152806#1 -152806#0 152771#0 -152377 -152712 -152763#3 -152763#2 -152776 -152702#3 -152702#2 152703#0 152703#1 153400#1 153400#2 153400#3 153400#4 153400#5 153400#6 153400#7 153400#8 153441#0 153441#1"/>
    </vehicle>
    <vehicle id="special_1-3_213" type="special" depart="18446" departLane="best" arrivalPos="random">
        <route edges="-152788#0 -152819#3 -152819#2 -152819#1 -152819#0 152828#4 152828#5 152828#6 152866#4 152866#5 153002#0 153002#1 153002#2 153002#3 -152162 -152326#5 -152326#4 -152326#3 -152326#2 -152326#1 -152326#0 153633 152401 -153003#6 -153452#6 -153452#5 -153452#4 -153452#3 -153452#2 -153452#1 -153452#0 -153447#4 -153447#3 -153447#2 -153447#1 -153447#0 -153448#1 153453"/>
    </vehicle>
    <vehicle id="special_3-1_74" type="special" depart="18487" departLane="best" arrivalPos="random">
        <route edges="152923 152253 153473#0 153473#1 152298 153338 152299 -153472#26 -153472#25 -153472#24 -153472#23 -153472#22 -153472#20 -153472#19 -153472#18 -153472#17 -153472#16 -153472#15 -153472#14 -153472#13 -153472#12 -153472#11 -153472#10 -153472#9 -153472#8 -153472#7 -153472#6 -153472#5 -153472#3 -153472#2 -153472#1 -153472#0 152534#0 152534#1 152133#2 152133#3 152133#4 152133#5 152817#0 152822 152814#2 152814#3 152812#0 152812#1 152812#2 152812#3"/>
    </vehicle>
    <vehicle id="special_2-1_263" type="special" depart="18536" departLane="best" arrivalPos="random">
        <route edges="-153370#6 -153370#5 -153370#4 -153370#3 -153370#2 -153370#1 -153019#3 -153019#2 -153019#1 -153019#0 -153379#2 -153379#1 -153379#0 -152246 -153381#1 -153381#0 -152247 -153408#5 -153325#5 -153325#4 -153327#11 -153327#10 -153327#9 -153327#8 -153327#7 -153327#6 -153327#5 152992#0 152992#2 152992#3 152992#4 152992#5 152992#6 152992#7 152992#8 153395#1"/>
    </vehicle>
    <vehicle id="special_3-1_97" type="special" depart="18576" departLane="best" arrivalPos="random">
        <route edges="-152923 -152300 -153474 153474 152300 152923 152253 153473#0 153473#1 152298 153338 152299 -153472#26 -153472#25 -153472#24 -153472#23 -153472#22 -153472#20 -153472#19 -153472#18 -153472#17 -153472#16 -153472#15 -153472#14 -153472#13 -153472#12 -153472#11 -153472#10 -153472#9 -153472#8 -153472#7 -153472#6 -153472#5 -153472#3 -153472#2 -153472#1 -153472#0 152414 152266 152415#0 152415#1 152304 152314#3 152314#4 152305 152308#3 152308#0 152267 152419 152202 -152381 -152289 152790 152288 152796 152287 152757 152286 152282 152665#0 152665#1 152359#2 -152603 -152166#1 -152166#0 -152220 152583#0 152583#1 152583#2 152583#3 152216 152575#0 152575#1 152344 152574#1 -152214 153374#0 152580"/>
    </vehicle>
    <vehicle id="special_1-2_142" type="special" depart="18585" departLane="best" arrivalPos="random">
        <route edges="152855 152769 152768 -152759 152772 152813#0 152813#1 152813#2 152813#3 152955#5 152775 152814#0 152814#1 152814#2 152814#3 152385 152464 152292 153636 153635 152870#4 152870#5 152870#0 152447 152454#0 152454#1 -152392#2 -152392#1 -152869#1"/>
    </vehicle>
    <vehicle id="special_3-1_31" type="special" depart="18621" departLane="best" arrivalPos="random">
        <route edges="-152284 152321#0 152406 152527 152324#1 152284 152851 152206 152532 152390 153637 152326#0 152326#1 152326#2 152326#3 152326#4 152326#5 152162 152164#0 152164#1 152395#1 152395#2 152897#0 152897#1 152984 152810#0 152810#1 152810#2 152810#3 152810#4 152810#5 152810#6 152810#7 152810#8 152810#9 152810#10 152810#11 152755 152226 152781#0 152815 152940#2 152230 152697#0 152697#1 152697#2 152697#3 152697#4 152697#5 152699 152701#0 152701#1 152171 152674 152538 152643#0 152643#1 152643#2 153401#0 153401#1 153401#2 153401#3 153402#0"/>
    </vehicle>
    <vehicle id="special_3-1_18" type="special" depart="18683" departLane="best" arrivalPos="random">
        <route edges="152409#3 152248 153391 152249 -153432 153432 -152249 -153391 -152248 -152409#3 -152409#2 -152409#1 -152409#0 152408 -152533 152924#4 152407 152527 152324#1 152284 152851 152206 152532 152390 153637 152326#0 152326#1 152326#2 152326#3 152326#4 152326#5 152162 152164#0 152164#1 152395#1 152395#2 152897#0 152897#1 152316 152399 152534#0 152534#1 152133#2 152133#3 152133#4 152133#5 152817#0 152817#1 152817#2 152955#4 -152813#3 -152813#2 -152813#1 -152813#0 -152772 152759 152756 152795 152799 -152861 -152943 152884 152872 152855"/>
    </vehicle>
    <vehicle id="special_2-1_4" type="special" depart="18692" departLane="best" arrivalPos="random">
        <route edges="-153482 153383#2 -152624#1 -152624#0 -153380#1 -153380#0 -152173 -152172#2 -152172#1 -152172#0 -153379#0 -152246 -153381#1 -153381#0 -152247 -153408#5 -153325#5 -153325#4 -153327#11 -153327#10 -153327#9 -153327#8 -153327#7 -153327#6 -153327#5 -153327#4 -153327#2 -153327#1 -153327#0 -153411#1 -153411#0 153409#14 153409#15 153409#16 152993 152995 152702#0 152702#1 152702#2 152702#3 -152697#2 -152697#1 -152697#0 152225 152939#0 152789 152781#2 152163 152965#0 152965#1 152965#2 152965#3 152983#0 152983#1 152828#0 -152788#1 -152788#0 -152819#3 -152819#2 -152819#1 -152819#0 -152828#3 -152828#2 -152828#1"/>
    </vehicle>
    <vehicle id="special_2-1_43" type="special" depart="18721" departLane="best" arrivalPos="random">
        <route edges="-152472 -152474#0 153486#5 153383#0 153383#1 153383#2 -152624#1 -152624#0 -153380#1 -153380#0 -152173 -152172#2 -152172#1 -152172#0 -153379#0 -152246 -153381#1 -153381#0 -152247 -153408#5 -153325#5 -153325#4 -153325#3 -153325#2 -153325#1 -153325#0 152929#3 -153395#1 -153395#0 152645#0 152645#1 152645#2 152645#3 152645#4 152645#5 153402#0 153402#1 153402#2 152675 152674 152538 152643#0 152644#0 152644#1 152644#2 152644#3 152644#4 152644#5 152644#6 152349#2 152349#3 152349#4 152349#1 -152644#6 -152644#5 -152644#4 -152644#3 -152644#2"/>
    </vehicle>
    <vehicle id="special_1-3_226" type="special" depart="18729" departLane="best" arrivalPos="random">
        <route edges="152286 152283 152650#1 152650#2 152650#3 152650#4 152666#3 152666#4 152278 -152286 -152757 -152287 -152796 -152288 -152790 152289 152381 -152202 152457 152307 152308#2 -152305 152314#1 152314#2 -152304 152277 152526 -152326#5 -152326#4 -152326#3 -152326#2 -152326#1 -152326#0 153633 152401 -153003#6 -153452#6 -153452#5 -153452#4 -153452#3 -153452#2 -153452#1 -153452#0 153447#5 153431#0 153431#1 153431#2 153431#3 152412#1 152409#0 152409#1 152409#2 152409#3 152248 153391"/>
    </vehicle>
    <vehicle id="special_2-1_54" type="special" depart="18758" departLane="best" arrivalPos="random">
        <route edges="-152988 -153488 -153353#2 -153350#2 -153350#1 -153350#0 -153355#1 -153355#0 -153319#4 -153319#3 -153319#2 -153319#1 -153319#0 -153361#4 -153361#3 -152553#1 -152553#0 153551 -152461#0 152966#1 152573#2 152573#3 152573#4 152141 152169 153371 152161#1 152531#0 152531#1 152531#2 152531#4 152531#6"/>
    </vehicle>
    <vehicle id="special_1-3_58" type="special" depart="18782" departLane="best" arrivalPos="random">
        <route edges="-152762#0 152956#7 152956#8 152956#10 152955#2 152955#3 -152817#2 -152817#1 -152817#0 152133#6 152133#7 -152135 152314#4 152314#1 152314#2 -152304 152277 152526 -152326#5 -152326#4 -152326#3 -152326#2 -152326#1 -152326#0 153633 152401 -153003#6 -153452#6 -153452#5 -153452#4 -153452#3 -153452#2 -153452#1 -153452#0 153447#5 153431#0 153431#1 153431#2 153431#3 152412#1 152409#0 -152746#8 -152746#7 -152746#5 -152746#4 -152746#2"/>
    </vehicle>
    <vehicle id="special_1-2_47" type="special" depart="18796" departLane="best" arrivalPos="random">
        <route edges="152170#1 -152697#5 -152697#4 -152697#3 -152697#2 -152697#1 -152697#0 152225 152939#0 152789 152781#2 152163 152965#0 152965#1 152965#2 152965#3 -152791#1 152820#0 152820#1 152133#7 152133#0 152133#1 152133#2 -152853 152295 -152894#2 -152894#1 -153555#2 -153555#1 -153555#0"/>
    </vehicle>
    <vehicle id="special_1-3_240" type="special" depart="18828" departLane="best" arrivalPos="random">
        <route edges="152645#4 152645#5 153402#0 153402#1 153402#2 152936 152680 152170#1 -152697#5 -152697#4 -152697#3 -152697#2 -152697#1 -152697#0 152225 152939#0 152939#1 -152810#11 -152810#10 -152810#9 -152810#8 -152810#7 -152810#6 -152810#5 -152810#4 -152810#3 -152810#2 -152810#1 -152810#0 152985 -152897#1 -152897#0 152395#3 152395#0 -152164#1 -152164#0 -152162 -152326#5 -152326#4 -152326#3 -152326#2 -152326#1 -152326#0 153633 153630#1 153632#1 152998#0 152998#1 -153454#1 152899"/>
    </vehicle>
    <vehicle id="special_2-1_35" type="special" depart="18856" departLane="best" arrivalPos="random">
        <route edges="-152915#1 -152915#0 -153472#20 -153472#19 -153472#18 -153472#17 -153472#16 -153472#15 -153472#14 -153472#13 -153472#12 -153472#11 -153472#10 153004#0 153004#1 153004#2 153004#3 153004#4 153004#5 153004#6 153004#7 152398#2 152398#3 152895#0 152895#1 152895#2 -152866#4 -152866#3 -152866#2 -152866#1 -152866#0 153548#3 153548#0 152941#0 152941#1 152941#2 152810#11 152755 152226 152781#0 152815 152940#2 152230 152697#0 152697#1 152697#2 152697#3 152697#4 152697#5 152699 152700"/>
    </vehicle>
    <vehicle id="special_1-2_70" type="special" depart="18860" departLane="best" arrivalPos="random">
        <route edges="152314#4 152314#1 152314#2 -152304 152277 152526 -152326#5 -152326#4 -152326#3 -152326#2 -152326#1 152400#0 152400#1"/>
    </vehicle>
    <vehicle id="special_2-1_260" type="special" depart="18883" departLane="best" arrivalPos="random">
        <route edges="-153554 153555#1 153555#2 153555#3 -152874 152879#1 152879#2 152870#5 152870#0 152870#1 152870#2 153634 152293#0 152293#0-AddedOffRampEdge 152293#1 152963 152812#2 152812#3 152812#4 152812#5 -152806#2 -152806#1 -152806#0 152771#0 -152377 -152712 -152763#3 -152763#2 -152776 -152702#3 -152702#2 152703#0 152703#1 153400#1 153400#2 153400#3 153400#4 153400#5 153400#6 153400#7 153400#8 152999#0 152999#1 153000 -152967#5 -152967#4"/>
    </vehicle>
    <vehicle id="special_1-2_190" type="special" depart="18887" departLane="best" arrivalPos="random">
        <route edges="-152763#3 -152763#2 -152763#1 -152763#0 -152697#0 152225 152939#0 152939#1 -152810#11 -152941#2 -152941#1 -152941#0 153548#1 153548#2 152866#0 152866#1 152866#2 152866#3 152866#4 152866#5 -152895#1 -152895#0 152398#0 152398#1 -153004#7 -153004#6"/>
    </vehicle>
    <vehicle id="special_1-3_237" type="special" depart="18898" departLane="best" arrivalPos="random">
        <route edges="153397 152643#2 153401#0 153401#1 153401#2 153401#3 153402#0 153402#1 153402#2 152936 152680 152170#1 -152697#5 -152697#4 -152697#3 -152697#2 -152697#1 -152697#0 152225 152939#0 152939#1 -152810#11 -152810#10 -152810#9 -152810#8 -152810#7 -152810#6 -152810#5 -152810#4 -152810#3 -152810#2 -152810#1 -152810#0 152985 -152897#1 -152897#0 152395#3 152395#0 -152164#1 -152164#0 -152162 -152326#5 -152326#4 -152326#3 -152326#2 -152326#1 -152326#0 153633 152401 -153003#6 -153452#6 -153452#5 -153452#4 -153452#3 -153452#2 -153452#1 -153452#0 -153447#4 -153447#3 -153447#2 -153447#1 -153447#0 -153448#1 153453"/>
    </vehicle>
    <vehicle id="special_1-3_100" type="special" depart="18900" departLane="best" arrivalPos="random">
        <route edges="152530#6 152530#7 152531#0 152531#1 152531#2 152531#4 152531#6 152650#4 152666#3 152666#4 152278 -152286 -152757 -152287 -152796 -152288 -152790 152289 152381 -152202 152457 152307 152308#2 -152305 152314#1 152314#2 -152304 152277 152526 -152326#5 -152326#4 -152326#3 -152326#2 -152326#1 -152326#0 153633 153630#1 153632#1 152998#0 152998#1 -153454#1 -153454#0 -153453"/>
    </vehicle>
    <vehicle id="special_2-1_217" type="special" depart="18933" departLane="best" arrivalPos="random">
        <route edges="153466 153006#0 153006#1 -153472#22 -153472#20 -153472#19 -153472#18 -153472#17 -153472#16 -153472#15 -153472#14 -153472#13 -153472#12 -153472#11 -153472#10 153004#0 153004#1 153004#2 153004#3 153004#4 153004#5 153004#6 153004#7 152398#2 152398#3 152895#0 152895#1 152895#2 -152866#4 -152828#6 -152828#5 -152828#4 -152828#3 -152828#2 -152828#1 -152788#1 -152788#0 -152819#3 -152819#2 -152819#1"/>
    </vehicle>
    <vehicle id="special_1-2_275" type="special" depart="18938" departLane="best" arrivalPos="random">
        <route edges="153395#1 152929#4 152929#0 152929#1 152929#2 152929#3 -153395#1 -153395#0 153409#0 153409#1 153409#3 153409#4 153409#5 153409#6 153409#7 153409#8 153409#9 153409#10 153409#11 153409#12 153409#13 153409#14 153409#15 153409#16 153552 -153550#2 -153550#1 -153550#0 153400#1 153400#2 153400#3 153400#4 153400#5 153400#6 153400#7 153400#8 153441#0 153441#1 -152958 -153480#1"/>
    </vehicle>
    <vehicle id="special_1-1_179" type="special" depart="18979" departLane="best" arrivalPos="random">
        <route edges="-153554 153555#1 153555#2 152894#1 152894#2 -152295 152853 152133#3 152133#4 152133#5 152133#6 152133#7 -152135 152314#4 152305 152308#3 152308#0 152267 152419 152202 -152381 -152289 152790 152288 152796 152287 152757 152286 152283 152650#1 152650#2 152530#0 152530#2 152530#4 152530#5 152530#6"/>
    </vehicle>
    <vehicle id="special_2-1_7" type="special" depart="19004" departLane="best" arrivalPos="random">
        <route edges="152604 -152602#7 -152602#6 -152602#5 -152602#4 -152602#3 -152602#2 -152613 -152606 -152601#2 -152601#1 -152601#0 -152663#10 -152663#9 -152663#8 -152663#7 -152663#6 -152663#5 -152663#4 -152663#3 -152663#2 -152663#1 152698#0 152698#1 -152771#5 -152771#4 -152771#3 -152771#2 -152771#0 152806#0 152806#1 152806#2 152816 152956#1 152956#2 152956#3 152956#4 152956#5 152956#6 152956#7 152956#8 152956#10 152955#2 152955#3 152955#4 -152813#3 -152813#2 -152813#1 -152813#0 -152772 152856 152858 -152885 152881 152880#0 152880#1 152877 152878 152938"/>
    </vehicle>
    <vehicle id="special_3-1_215" type="special" depart="19020" departLane="best" arrivalPos="random">
        <route edges="-153454#0 -153455#0 -152252 153456 -153456 152252 153455#0 153455#1 153454#1 153001#0 153001#1 152231 153334 153637 152326#0 152326#1 152326#2 152326#3 152326#4 152326#5 152162 -153002#3 -153002#2 -153002#1 -153002#0 -152895#1 -152895#0 152398#0 152398#1 152398#2 152934#0 152934#1 152934#2 152415#1 152304 152314#3 152314#4 152305 152308#3 -152301 -152827#2 -152827#1 -152827#0 152812#4 152812#5"/>
    </vehicle>
    <vehicle id="special_1-1_12" type="special" depart="19021" departLane="best" arrivalPos="random">
        <route edges="152314#4 152305 152308#3 -152301 -152827#2 -152827#1 -152827#0 152812#4 152812#5 -152806#2 -152806#1 -152806#0 152771#0 -152377 -152712 -152763#3 -152763#2 -152763#1 -152763#0 -152697#0 152225 152939#0 152939#1 -152810#11 -152810#10 -152810#9 152797 152778"/>
    </vehicle>
    <vehicle id="special_1-3_129" type="special" depart="19048" departLane="best" arrivalPos="random">
        <route edges="-152771#0 152806#0 152806#1 152806#2 152816 152956#1 152956#2 152956#3 152956#4 152301 152308#0 152308#1 152308#2 -152305 152314#1 152314#2 -152304 152277 152526 -152326#5 -152326#4 -152326#3 -152326#2 -152326#1 -152326#0 153633 152401 -153003#6 -153452#6 -153452#5 -153452#4 -153452#3 -153452#2 -153452#1 -153452#0 -153447#4 -153447#3 -153447#2 -153447#1 -153447#0 -153448#1 153453"/>
    </vehicle>
    <vehicle id="special_2-1_159" type="special" depart="19067" departLane="best" arrivalPos="random">
        <route edges="153419#3 153419#4 152251#0 153038#1 -153038#1 -152251#0 -153419#4 -153419#3 153406#0 153406#1 153406#2 153406#3 153406#4 153406#5 153406#6 153406#7 153406#8 153406#9 -153327#2 -153327#1 -153327#0 -153411#1 -153411#0 153409#14 153409#15 153409#16 152993 152995 152702#0 152702#1 152702#2 152702#3 152697#3 152697#4 152697#5 152699 152700 152663#1 152663#2 152663#3"/>
    </vehicle>
    <vehicle id="special_1-2_80" type="special" depart="19142" departLane="best" arrivalPos="random">
        <route edges="152598 -152166#1 -152166#0 -152220 152583#0 152583#1 152583#2 152583#3 152216 152575#0 152575#1 152344 152341#0 152577#0 152577#1 152577#2 152577#3 152577#4 -152556 153359#3 153319#0 153319#1 153319#2 153319#3 153319#4 153355#0 153355#1 153350#0 153350#1 153350#2 153353#2 153488 -153008#0"/>
    </vehicle>
    <vehicle id="special_1-2_272" type="special" depart="19156" departLane="best" arrivalPos="random">
        <route edges="152777 -152935#2 -152935#1 -152935#0 152806#1 152806#2 152816 152956#1 152956#2 152956#3 152956#4 152301 152308#0 152308#1 152308#2 -152305 152314#1 152313 -152894#2 -152894#1 -152894#0 152970 152883#1 -153554"/>
    </vehicle>
    <vehicle id="special_2-1_261" type="special" depart="19159" departLane="best" arrivalPos="random">
        <route edges="153400#7 153400#8 152999#0 152999#1 153000 152809 152810#9 152810#10 152810#11 152755 152226 152781#0 152781#1 152781#2 152163 152965#0 152965#1 152965#2 152965#3 -152791#1 152804 152955#3 152955#4 -152813#3 -152813#2 -152813#1 -152813#0 -152772 152759 152756 -152770 152769"/>
    </vehicle>
    <vehicle id="special_1-3_212" type="special" depart="19159" departLane="best" arrivalPos="random">
        <route edges="152578#3 152578#4 152450#2 152450#3 152450#4 -152449 -152219 -152165 -152601#2 -152601#1 -152601#0 -152663#10 -152663#9 -152663#8 -152663#7 -152663#6 -152663#5 -152663#4 -152663#3 -152663#2 -152663#1 152698#0 152698#1 -152771#5 -152771#4 -152771#3 -152771#2 -152771#0 152806#0 152806#1 152806#2 152816 152956#1 152956#2 152956#3 152956#4 152301 152308#0 152308#1 152308#2 -152305 152314#1 152314#2 -152304 152277 152526 -152326#5 -152326#4 -152326#3 -152326#2 -152326#1 -152326#0 153633 152401 -153003#6 -153452#6 -153452#5 -153452#4 -153452#3 -153452#2 -153452#1 -153452#0 -153447#4 -153447#3 -153447#2 -153447#1 -153447#0 -153448#1 153453"/>
    </vehicle>
    <vehicle id="special_1-1_143" type="special" depart="19179" departLane="best" arrivalPos="random">
        <route edges="153002#0 153002#1 153002#2 153002#3 152164#0 152164#1 152395#1 152395#2 152897#0 152897#1 152316 152399 152534#0 152534#1 152133#2 152133#3 152133#4 152133#5 152817#0 152817#1 152817#2 152955#4 152955#5 152775 152814#0 152814#1"/>
    </vehicle>
    <vehicle id="special_2-1_118" type="special" depart="19194" departLane="best" arrivalPos="random">
        <route edges="-153370#14 -153370#13 -153370#12 -153370#11 -153370#10 -153370#9 -153370#8 -152928 153370#7 153370#8 153370#9 153370#10 153370#11 153370#12 153370#13 153370#14 152929#1 152929#2 152929#3 -153395#1 -153395#0 152645#0 152645#1 152645#2 152645#3 152645#4 152645#5 153402#0 153402#1 153402#2 152936 152680 152170#1 -152697#5 -152697#4 -152697#3 -152697#2 -152697#1 -152697#0 152225 152939#0 152939#1 -152810#11 -152810#10 -152810#9 -152810#8 -152810#7 -152810#6 -152810#5 -152810#4 -152810#3 -152832#6 -152832#5 -152826#2"/>
    </vehicle>
    <vehicle id="special_1-3_198" type="special" depart="19226" departLane="best" arrivalPos="random">
        <route edges="153397 152643#2 153401#0 153401#1 153401#2 153401#3 153402#0 153402#1 153402#2 152936 152680 152170#1 -152697#5 -152697#4 -152697#3 -152697#2 -152697#1 -152697#0 152225 152939#0 152939#1 -152810#11 -152810#10 -152810#9 -152810#8 -152810#7 -152810#6 -152810#5 -152810#4 -152810#3 -152810#2 -152810#1 -152810#0 152985 -152897#1 -152897#0 152395#3 152395#0 -152164#1 -152164#0 -152162 -152326#5 -152326#4 -152326#3 -152326#2 -152326#1 -152326#0 153633 153630#1 153632#1 152998#0 152998#1 -153454#1 -153454#0 -153455#0 -152252 153456 -153456 152252 153455#0 153455#1"/>
    </vehicle>
    <vehicle id="special_1-1_7" type="special" depart="19247" departLane="best" arrivalPos="random">
        <route edges="152293#1 152963 152812#2 152812#3 152812#4 152812#5 -152806#2 -152806#1 -152800 152935#1 152935#2 -152777"/>
    </vehicle>
    <vehicle id="special_1-1_180" type="special" depart="19255" departLane="best" arrivalPos="random">
        <route edges="-152602#8 -152602#7 -152602#6 -152602#5 -152602#4 -152602#3 -152602#2 -152613 -152606 -152601#2 -152601#1 -152601#0 -152663#10 -152663#9 -152663#8 -152663#7 -152663#6 -152663#5 -152663#4 152710 152170#0 152170#1 -152697#5 -152697#4 -152697#3 -152697#2 -152697#1 -152697#0 152225 152939#0 152939#1 -152810#11 -152810#10 -152810#9 -152810#8 -152808#5 -152808#4 -152808#3 -152808#2 -152808#1 -152808#0 153437#1 153442 152826#1 152826#2 152832#5"/>
    </vehicle>
    <vehicle id="special_2-1_48" type="special" depart="19260" departLane="best" arrivalPos="random">
        <route edges="152714 -153640 153640 -153415 153438#5 152958 -153441#1 -153441#0 -153400#8 -153400#7 -153400#6 -153400#5 -153400#4 -153400#3 -153400#2 -153400#1 -153400#0 -152703#0 152702#2 152702#3 152697#3 152697#4 152697#5 152699 152700 152663#1 152663#2 152663#3 152663#4 152663#5 152663#6 152663#7 152663#8 -152649 -152669 -152655 -152647 -152945"/>
    </vehicle>
    <vehicle id="special_3-1_5" type="special" depart="19262" departLane="best" arrivalPos="random">