<?xml version="1.0" encoding="UTF-8"?>

<!-- generated on Thu Apr 26 16:59:21 2018 by Eclipse SUMO duarouter Version 1c6dcbf191
<configuration xmlns:xsi="http://www.w3.org/2001/XMLSchema-instance" xsi:noNamespaceSchemaLocation="http://sumo.dlr.de/xsd/duarouterConfiguration.xsd">

    <input>
        <net-file value="../scenario/in/most.net.xml"/>
        <additional-files value="../scenario/in/add/most.busstops.add.xml,../scenario/in/add/most.trainstops.add.xml,../scenario/in/add/most.parkings.add.xml,../scenario/in/add/basic.vType.xml"/>
        <route-files value="out/most.other.trips.xml"/>
    </input>

    <output>
        <output-file value="../scenario/in/route/most.other.rou.xml"/>
        <vtype-output value="/dev/null"/>
        <alternatives-output value="../scenario/in/route/most.other.rou.alt.xml"/>
    </output>

    <processing>
        <ignore-errors value="true"/>
        <max-alternatives value="5"/>
        <remove-loops value="false"/>
        <repair value="false"/>
        <repair.from value="false"/>
        <repair.to value="false"/>
        <routing-threads value="4"/>
        <routing-algorithm value="dijkstra"/>
    </processing>

    <time>
        <begin value="0"/>
        <end value="84600"/>
    </time>

</configuration>
-->

<routes xmlns:xsi="http://www.w3.org/2001/XMLSchema-instance" xsi:noNamespaceSchemaLocation="http://sumo.dlr.de/xsd/routes_file.xsd">
    <vehicle id="other_2_246" type="trailer" depart="18002.00" departLane="best">
        <route edges="1380#0 1380#1 1380#2 1379#1 1379#2 1379#3 1379#4 1379#5 1379#6 1379#7 1361#1 650#0 -652#2 -652#1 -652#0 1319#0 1319#1 1494#0 1494#1 1494#2 1320 1315#1 1315#2 -542#1 -542#0 -1312#5 -1312#4 -1312#3 -1312#2 -1312#1 -1312#0 -1311#0 -1313#0 -1250#5 -1250#4 -1252#11 -1252#10 -1252#9 -1252#8 -1252#7 -1252#6 -1252#5 -1252#4 -1252#2 -1252#1 -1252#0 -1343#1 -1343#0 1341#14 1341#15 1341#16 918 920 622#0 622#1 622#2 622#3 617#3 617#4 617#5 619 620 618#0 618#1 -858#5"/>
    </vehicle>
    <vehicle id="other_GW1_325" type="trailer" depart="18007.00" departLane="best">
        <route edges="430#0 430#1 217 845#3 442 341#1 -1363#3 -1363#2 -1363#1 -1363#0 1379#6 1379#7 1361#1 650#0 -652#2 -652#1 -652#0 1319#0 1319#1 1494#0 1494#1 1494#2 1320 1315#1 1315#2 -542#1 -542#0 -1312#5 -1312#4 -1312#3 -1312#2 -1312#1 -1312#0 1311#1 1311#2 1311#3 1311#4 1297#0 1297#1 199#0 199#1 -1300#4 -1300#3 -1300#2 1408#0 1408#1 1408#2 1408#3 1408#4 1408#5 1408#6 1408#7 497#1 497#2 100"/>
    </vehicle>
    <vehicle id="other_1_82" type="truck" depart="18057.00" departLane="best">
        <route edges="-776 -779 -777 692 733#0 733#1 733#2 733#3 878#4 878#0 878#1 878#2 -737#2 -737#0 15#6 15#7 -17 211#4 202 205#3 -197 879#5 879#6 879#7 879#8 879#9 -741#1 -741#0 -1480#3 -712#1 -712#0 707#1 888#1"/>
    </vehicle>
    <vehicle id="other_1_520" type="emergency" depart="18073.00" departLane="best">
        <route edges="-683#3 -683#2 -683#1 -683#0 -617#0 111 862#0 862#1 -730#11 -864#2 -723 730#10 730#11"/>
    </vehicle>
    <vehicle id="other_3_32" type="trailer" depart="18111.00" departLane="best">
        <route edges="1380#2 1379#1 1379#2 1379#3 1379#4 1379#5 1379#6 1379#7 1361#1 650#0 -652#2 -652#1 -652#0 1319#0 1319#1 1494#0 1494#1 1248#0 1248#1 1248#2 1248#3 1248#4 1248#5 1248#6 1248#7 1248#8 1248#9 1248#10 1248#11 1248#12 -1256#7 -1256#6 -1256#5 -1256#4 -1256#3 -1256#2 -1256#1 -1256#0 -1372#0 -1369#3 -1369#2 -1369#1 1371 728#1 728#2 728#3 728#4 728#5 730#8 717 698 1484#2 1484#3 1484#0"/>
    </vehicle>
    <vehicle id="other_1_432" type="emergency" depart="18162.00" departLane="best">
        <route edges="-694 1480#2 -712#1"/>
    </vehicle>
    <vehicle id="other_3_399" type="truck" depart="18170.00" departLane="best">
        <route edges="451 456 -913 -1422 -1285#2 -1282#2 -1282#1 -1282#0 -1287#1 -1287#0 851#3 851#0 -468#6 -468#5 -468#3 -468#2 -468#1 -468#0 1300#1 1408#0 1408#1 1408#2 1408#3 1408#4 1408#5 1408#6 1408#7 497#1 243 494#0 494#1 494#2 494#3 494#4 351#2 351#3 351#4 -350 524#0"/>
    </vehicle>
    <vehicle id="other_2_235" type="trailer" depart="18197.00" departLane="best">
        <route edges="223#0 223#1 223#2 223#3 223#4 223#5 223#6 223#7 223#8 223#9 223#10 295#1 295#2 818#0 818#1 908 730#0 730#1 730#2 730#3 730#4 730#5 730#6 730#7 730#8 730#9 730#10 730#11 675 735 863#2 617#0 617#1 617#2 617#3 617#4 617#5 619 620 582#1 582#2 582#3 576 868 566 574 589 568 -582#8 -582#7 -582#6 -582#5"/>
    </vehicle>
    <vehicle id="other_2_535" type="delivery" depart="18270.00" departLane="best">
        <route edges="839 -836#0 -1404#21 -1404#20 -1404#19 -1404#18 -1404#17 -1404#16 -1404#13 -1404#12 -1404#11 -1404#10 -1404#9 -1404#8 -1404#7 -1404#6 -1404#5 -1404#3 -1404#2 -1404#1 -1404#0 315 162 316#0 316#1 201 211#3 211#4 202 205#3 -197 -747#2 -747#1 -747#0 732#4 732#5 857#0 857#1 -726#2 -726#1 -720 858#1 858#2 455 -683#2 -683#1 -683#0"/>
    </vehicle>
    <vehicle id="other_1_303" type="truck" depart="18321.00" departLane="best">
        <route edges="-927#0 816#2 -787#4 -787#3 -787#2 -787#1 -787#0 1484#3 1484#0 864#0 864#1 864#2 730#11 675 735 863#2 617#0 617#1 617#2 617#3 617#4 617#5 619 620 582#1 582#2 582#3 582#4 582#5 582#6 582#7 582#8 582#9 582#10 582#11 519#1 519#2 524#0 531 -520#1 -524#1"/>
    </vehicle>
    <vehicle id="other_2_873" type="emergency" depart="18360.00" departLane="best">
        <route edges="306#1 306#2 306#3 223#0 223#1 223#2 223#3 223#4 223#5 223#6 223#7 223#8 223#9 223#10 295#1 295#2 295#3 -808#1 -808#0 192 -809#1 -809#0 -1372#4 -1372#3 -1372#2 -1372#0 1368#1 1368#2 1368#3 1368#4 1368#5 1368#6 -143#0 -1351#3 1338#0 1338#1 1338#2 1338#3 1338#4 1338#5 1338#6 1338#7 1338#8 1338#9 1252#4 917#0 917#2 917#3 917#4 917#5"/>
    </vehicle>
    <vehicle id="other_3_19" type="emergency" depart="18383.00" departLane="best">
        <route edges="164 422 431 469 415#3 415#4 1309#0 1309#1 1309#2 1309#3 1309#4 1309#5 1309#6 1309#7 -1311#1 -1311#0 -1313#0 -1340#4 -1340#3 -1340#2 -1340#1 -1340#0 1351#1 1351#2 1351#3 1351#4 143#1 -1368#5 -1368#4 -1368#3 -1368#2 -1368#1 -1368#0 1372#2 1372#3 1372#4 752#0 752#1 752#2 287"/>
    </vehicle>
    <vehicle id="other_GW1_182" type="trailer" depart="18403.00" departLane="best">
        <route edges="420 164 422 431 469 415#3 415#4 1309#0 1309#1 1309#2 1309#3 1309#4 1309#5 1309#6 1309#7 -1311#1 -1314 1312#1 1312#2 1312#3 1312#4 1312#5 1312#6 542#1 -1315#2 -1315#1 -1320 1494#3 1494#0 1494#1 1248#0 1248#1 1248#2 1248#3 1248#4 1248#5 1248#6 1248#7 1248#8 1248#9 1248#10 1248#11 1248#12 -1256#7 -1256#6 -1256#5 -1256#4 -1256#3"/>
    </vehicle>
    <vehicle id="other_1_702" type="delivery" depart="18422.00" departLane="best">
        <route edges="728#2 728#3 728#4 728#5 730#8 730#9 730#10 730#11 675 735 863#2 617#0 683#0 683#1 683#2 683#3 632 580 -691#2 -691#0 726#0 -720"/>
        <stop parkingArea="152480" duration="43200.00"/>
    </vehicle>
    <vehicle id="other_GW1_166" type="truck" depart="18457.00" departLane="best">
        <route edges="420 164 422 431 469 415#3 415#4 1309#0 1309#1 1309#2 1309#3 1309#4 1309#5 1309#6 1309#7 -1311#1 -1311#0 -1313#0 -1250#5 -1250#4 -1252#11 -1252#10 -1252#9 -1252#8 -1252#7 -1252#6 -1252#5 -1252#4 -1252#2 -1252#1 -1252#0 -1343#1 -1343#0 1341#14 1341#15 1341#16 918 920 622#0 622#1 622#2 622#3 617#3 617#4 617#5 619 620 572#0 572#1 572#2 -593#5 583#0 583#1 -579#6 -579#5 -579#4 -579#3 -579#2 -579#1 -579#0 257#1 257#2 257#3 257#0 579#0 579#1 579#2"/>
    </vehicle>
    <vehicle id="other_3_171" type="emergency" depart="18494.00" departLane="best">
        <route edges="-1264 -1269#0 911#1 456 -913 -1422 -1285#2 -1282#2 -1282#1 -1282#0 -1287#1 -1287#0 851#3 851#0 -468#6 -468#5 -468#3 -468#2 -468#1 -468#0 1300#1 1408#0 1408#1 1408#2 1408#3 1408#4 1408#5 1408#6 1408#7 497#1 243 494#0 494#1 494#2 494#3 494#4 351#2 351#3 351#4 -350 -519#2 -519#1 -519#0 -582#10 -582#9 -582#8 -582#7 -582#6 -582#5 -582#4 630#1 630#2 630#3 -617#5 -617#4 -617#3 -622#3 -622#2 -622#1 -622#0 -920"/>
    </vehicle>
    <vehicle id="other_2_652" type="truck" depart="18503.00" departLane="best">
        <route edges="-1373#1 -1373#0 -1332#8 -1332#7 -1332#6 -1332#5 -1332#4 -1332#3 -1332#2 -1332#1 1486#0 1486#1 1486#2 -1488 918 -1486#3 -1486#2"/>
    </vehicle>
    <vehicle id="other_2_731" type="delivery" depart="18503.00" departLane="best">
        <route edges="646 -645#0 -636#1 -636#0 -1351#3 1338#0 1338#1 1338#2 1338#3 1338#4 1338#5 1338#6 1338#7 1338#8 1338#9 1252#4 917#0 917#2 917#3 917#4 917#5 917#6 917#7 917#8 1327#1 850#4 850#0 850#1 850#2 850#3 -1327#1 -917#8 -917#7"/>
    </vehicle>
    <vehicle id="other_3_584" type="truck" depart="18533.00" departLane="best">
        <route edges="1265 -1264 -1269#0 911#1 456 -913 -1422 -1285#2 -1282#2 -1282#1 -1282#0 -1287#1 -1287#0 851#3 851#0 -468#6 -468#5 -468#3 -468#2 -468#1 -468#0 1300#1 1408#0 1408#1 1408#2 1408#3 1408#4 1408#5 1408#6 1408#7 497#1 243 494#0 494#1 494#2 494#3 494#4 351#2 351#3 351#4 -350 -519#2 -519#1 -519#0 -582#10 -582#9 -582#8 -582#7 -582#6 -582#5 -582#4 -582#3 -582#2 -582#1 618#0 618#1 -691#5 -691#4 -691#3 -691#2 -691#0 726#0 726#1 726#2 857#2 857#3 736 879#1 879#2 879#3 879#4 879#5 879#6 879#7 879#8 879#9 879#11 878#1 878#2 878#3 -733#3 -733#2 -733#1 -733#0 -692 679 -688 -689 -775 -793 -805 866 782 -719"/>
    </vehicle>
    <vehicle id="other_1_164" type="coach" depart="18551.00" departLane="best">
        <route edges="734#3 734#4 732#0 732#1 732#2 732#3 732#4 732#5 857#0 857#1 -726#2 -726#1 -726#0 691#0 691#2 691#3 691#4 691#5 -618#1 -618#0 582#1 582#2 582#3 582#4 582#5 582#6 582#7 582#8 582#9 582#10 582#11 519#1 519#2 519#3 351#1 351#2 529#0 529#1 529#2 352 353#0"/>
    </vehicle>
    <vehicle id="other_GW1_58" type="trailer" depart="18565.00" departLane="best">
        <route edges="420 164 422 431 469 415#3 415#4 1309#0 1309#1 1309#2 1309#3 1309#4 1309#5 1309#6 1309#7 -1311#1 -1311#0 -1313#0 -1250#5 -1250#4 -1252#11 -1252#10 -1252#9 -1252#8 -1252#7 -1252#6 -1252#5 -1252#4 -1252#2 -1252#1 -1252#0 -1343#1 -1343#0 1341#14 1341#15 1341#16 918 920 622#0 622#1 622#2 622#3 696 683#2 683#3 632 580 -691#2 -276"/>
    </vehicle>
    <vehicle id="other_2_341" type="trailer" depart="18589.00" departLane="best">
        <route edges="-1332#3 -1332#2 -1332#1 -1332#0 -623#0 622#2 622#3 617#3 617#4 617#5 619 621#0 621#2 594 447 561#0 562#0 562#1 562#2 562#3 562#4 562#5 562#6 247#2 247#3 -416#1 -520#9 -520#8 -520#7 -520#6 -520#5 -520#4 -520#3"/>
    </vehicle>
    <vehicle id="other_3_554" type="delivery" depart="18616.00" departLane="best">
        <route edges="-1269#0 911#1 456 -913 -1422 -1285#2 -1282#2 -1282#1 -1282#0 -1287#1 -1287#0 851#3 851#0 -468#6 -468#5 -468#3 -468#2 -468#1 -468#0 1300#1 1408#0 1408#1 1408#2 1408#3 1408#4 1408#5 1408#6 1408#7 497#1 243 494#0 494#1 494#2 494#3 494#4 351#2 351#3 351#4 -350 -519#2 -519#1 -519#0 -582#10 -582#9 -582#8 -582#7 -582#6 -582#5 -582#4 -582#3 -582#2 -582#1 618#0 618#1 -691#5 -691#4 -691#3 -691#2 -691#0 726#0 726#1 726#2 857#2 857#3 736 879#1 879#2 879#3 879#4 879#5 879#6 879#7 879#8 879#9 879#11 878#1 878#2 878#3 -733#3 -733#2 -733#1 -733#0 -692 679 -688 -689 -775 -793"/>
    </vehicle>
    <vehicle id="other_1_300" type="truck" depart="18666.00" departLane="best">
        <route edges="-579#2 -579#1 -579#0 257#1 257#2 257#3 257#0 579#0 579#1 579#2 579#3 579#4 579#5 579#6 -583#1 -583#0 593#5 564#0 588#1 588#2 691#2 -580 -632 -683#3 -683#2 -683#1 -683#0 -617#0 -369#1 -369#0"/>
    </vehicle>
    <vehicle id="other_3_559" type="emergency" depart="18667.00" departLane="best">
        <route edges="911#1 456 -913 -1422 -1285#2 -1282#2 -1282#1 -1282#0 -1287#1 -1287#0 851#3 851#0 -468#6 -468#5 -468#3 -468#2 -468#1 -468#0 1300#1 1408#0 1408#1 1408#2 1408#3 1408#4 1408#5 1408#6 1408#7 497#1 243 494#0 494#1 494#2 494#3 494#4 351#2 351#3 351#4 -350 -519#2 -519#1 -519#0 -582#10 -582#9 -582#8 -582#7 -582#6 -582#5 -582#4 630#1 630#2 630#3 -617#5 394#0 394#1 394#2 394#3 394#5 609#2"/>
    </vehicle>
    <vehicle id="other_3_115" type="delivery" depart="18736.00" departLane="best">
        <route edges="-666#0 666#3 666#4 666#5 666#7 666#8 -310#0 309 341#1 -1363#3 -1363#2 -1363#1 -1363#0 1379#6 1379#7 1361#1 650#0 -652#2 -652#1 -652#0 1319#0 1319#1 1494#0 1494#1 1494#2 1320 1315#1 1315#2 -542#1 -542#0 -1312#5 -1312#4 -1312#3 -1312#2 -1312#1 -1312#0 -1311#0 -1313#0 -1250#5 -1250#4 -1252#11 -1252#10 -1252#9 -1252#8 -1252#7 -1252#6 -1252#5 -1252#4 -1252#2 -1252#1 -1252#0 -1343#1 -1343#0 1341#14 1341#15 1341#16 1488 -1486#2 -1486#1 -1486#0"/>
    </vehicle>
    <vehicle id="other_2_308" type="trailer" depart="18743.00" departLane="best">
        <route edges="-248#0 247#3 247#4 247#1 -562#6 -562#5 -562#4 -562#3 -562#2 -562#1 -562#0 561#1 561#2 1333#0 1333#1 1333#2 1333#3 1334#0 1334#1 1334#2 859 600 630#3 -617#5 -617#4 -617#3 -617#2 -617#1 -617#0 111 862#0 709 701#2 888#0 888#1 888#2 888#3 888#4 888#5 -711#1"/>
    </vehicle>
    <vehicle id="other_1_272" type="emergency" depart="18745.00" departLane="best">
        <route edges="189#0 189#1 886 732#2 732#3 747#0 282#1 282#2 -700#1 -700#0 -682#1 -682#0 879#7 879#8 879#9 -741#1 -741#0 -1480#3 -1480#2 -1480#1 -1480#0 -888#1 -743#1 -743#0 1484#0 864#0 864#1 -723 -730#9 717"/>
    </vehicle>
    <vehicle id="other_3_471" type="coach" depart="18751.00" departLane="best">
        <route edges="762 -770#0 1384#6 928#6 303 1573#1 923#0 754 926#1 1578 223#0 223#1 223#2 223#3 223#4 223#5 223#6 223#7 223#8 223#9 223#10 295#1 295#2 818#0 818#1 908 730#0 730#1 730#2 730#3 730#4 730#5 730#6 730#7 730#8 730#9 730#10 730#11 675 735 863#2 617#0 617#1 617#2 617#3 617#4 617#5 619 620 582#1 582#2 582#3 -583#2 -583#1 -583#0"/>
    </vehicle>
    <vehicle id="other_1_163" type="emergency" depart="18813.00" departLane="best">
        <route edges="-856#2 -856#1 -856#0 298#3 816#0 816#1 816#2 -787#4 -748#6 -748#5 -748#4 -748#3 -748#2 -748#1 -708#1 -708#0"/>
    </vehicle>
    <vehicle id="other_2_523" type="truck" depart="18822.00" departLane="best">
        <route edges="1333#1 1333#2 1333#3 1334#0 1334#1 1334#2 859 600 630#3 619 620 618#0 618#1 -691#5 -691#4 -691#3 -691#2 -691#0 726#0 726#1 726#2 857#2 857#3 857#4 857#0 703#0 852 -705#4 367 705#3"/>
    </vehicle>
    <vehicle id="other_1_173" type="delivery" depart="18831.00" departLane="best">
        <route edges="281 362 204 205#2 205#3 -197 -747#2 -747#1 -747#0 732#4 732#5 857#0 857#1 -726#2 -726#1 -726#0 691#0 691#2 691#3 691#4 691#5 -618#1 -618#0 582#1 582#2 582#3 630#1 621#2 594 447 561#0 562#0 562#1 562#2 562#3 562#4 562#5 562#6 247#2 247#3 -416#1 -520#9 -520#8 -520#7 -855#4 -855#3"/>
    </vehicle>
    <vehicle id="other_1_410" type="emergency" depart="18844.00" departLane="best">
        <route edges="-748#6 -748#5 -748#4 -748#3 -748#2 -748#1 -748#0 -907#1 -907#0 -711#1 740#0 740#1 15#7 -17 211#4 202 205#3 205#0 163 320 81 -185 710 184"/>
    </vehicle>
    <vehicle id="other_2_402" type="delivery" depart="18861.00" departLane="best">
        <route edges="-829#3 -829#2 -829#1 -829#0 930#0 930#1 829#0 829#1 829#2 829#3 829#4 829#5 829#6 829#7 829#8 902#1 902#2 902#3 -817#1 -804#2 -804#1 -804#0 815#0 815#1 815#2 -191 773 15#3 15#4 15#5 15#6 15#7 15#0 15#1 15#2 -773 191 -815#2"/>
    </vehicle>
    <vehicle id="other_2_540" type="coach" depart="18898.00" departLane="best">
        <route edges="306#1 306#2 306#3 223#0 223#1 223#2 223#3 223#4 223#5 223#6 223#7 223#8 223#9 223#10 295#1 295#2 818#0 818#1 908 730#0 730#1 730#2 730#3 730#4 730#5 730#6 730#7 730#8 730#9 730#10 730#11 675 735 863#2 617#0 617#1 617#2 617#3 617#4 617#5 619 621#0 621#2 594 447 561#0 562#0 562#1 562#2 562#3 562#4 562#5 562#6 247#2 247#3"/>
    </vehicle>
    <vehicle id="other_3_406" type="emergency" depart="18910.00" departLane="best">
        <route edges="911#1 456 -913 -1422 -1285#2 -1282#2 -1282#1 -1282#0 -1287#1 -1287#0 851#3 851#0 -468#6 -468#5 -468#3 -468#2 -468#1 -468#0 1300#1 1408#0 1408#1 1408#2 1408#3 1408#4 1408#5 1408#6 1408#7 497#1 243 494#0 494#1 494#2 494#3 494#4 351#2 351#3 351#4 -350 -519#2 -519#1 -519#0 -582#10 -582#9 -582#8 -582#7 -582#6 -582#5 -582#4 630#1 630#2 630#3 -617#5 -617#4 -617#3 -622#3 -622#2 -622#1 -622#0 -920 -1486#3 -1486#2 -1486#1 -1486#0 1332#1 1332#2 1332#3 1332#4 1332#5 1332#6 1332#7 1332#8 1373#0 1373#1 1369#0 1371"/>
    </vehicle>
    <vehicle id="other_2_247" type="emergency" depart="18948.00" departLane="best">
        <route edges="-830#0 -1407#3 -1407#2 -1407#1 -1407#0 -1404#26 -1404#25 -1404#24 -1404#23 -1404#21 -1404#20 -1404#19 -1404#18 -1404#17 -1404#16 -1404#13 -1404#12 -1404#11 -1404#10 -1404#9 -1404#8 -1404#7 -1404#6 -1404#5 -1404#3 -1404#2 -1404#1 -1404#0 315 162 316#0 316#1 201 211#3 211#4 202 205#3 -197 879#5 879#6 879#7 879#8 879#9 -741#1 -741#0 -1480#3 -1480#2 -1480#1 -1480#0 -888#1 -888#0 863#0 863#1 863#2 111 369#0 369#1"/>
        <stop parkingArea="152434" duration="43200.00"/>
    </vehicle>
    <vehicle id="other_GW1_33" type="emergency" depart="18948.00" departLane="best">
        <route edges="420 164 422 431 469 415#3 415#4 1309#0 1309#1 1309#2 1309#3 1309#4 1309#5 1309#6 1309#7 -1311#1 -1311#0 -1313#0 -1250#5 -1250#4 -1252#11 -1252#10 -1252#9 -1252#8 -1252#7 -1252#6 -1252#5 -1252#4 -1252#2 -1252#1 -1252#0 -1343#1 -1343#0 1341#14 1341#15 1341#16 918 920 622#0 622#1 622#2 622#3 -617#2 -617#1 -617#0 111 862#0 709 701#2 888#0 888#1 1480#0 1480#1 1480#2 1480#3 741#0 741#1 879#11 878#1 878#2 878#3 -733#3 -733#2 -733#1 -733#0 -692 679 -688 -689 690 715 719 -722 -704"/>
    </vehicle>
    <vehicle id="other_GW1_42" type="truck" depart="18980.00" departLane="best">
        <route edges="420 164 422 431 469 415#3 415#4 1309#0 1309#1 1309#2 1309#3 1309#4 1309#5 1309#6 1309#7 -1311#1 -1311#0 -1313#0 -1250#5 -1250#4 -1252#11 -1252#10 -1252#9 -1252#8 -1252#7 -1252#6 -1252#5 -1252#4 -1252#2 -1252#1 -1252#0 -1343#1 -1343#0 1341#14 1341#15 1341#16 918 920 622#0 622#1 622#2 622#3 -617#2 -617#1 -617#0 111 862#0 709 701#2 888#0 888#1 1480#0 1480#1 1480#2 1480#3 741#0 741#1 879#11 878#1 878#2 -737#2 -737#0 15#6 15#7 15#0 16 887 -162 -315 -877 812#1 812#2 902#0 902#1 902#2 -903 790#0 790#1 292#0"/>
    </vehicle>
    <vehicle id="other_2_680" type="emergency" depart="18984.00" departLane="best">
        <route edges="902#4 902#0 902#1 902#2 902#3 -817#1 -817#0 895#3 895#4 800#0 800#1 800#2 791#5 791#0 791#1 791#2 1575 189#0 189#1 886 732#2 732#3 732#4 732#5 857#0 857#1 -726#2 -726#1 -720 858#1 858#2 455 -683#2 -696 617#3 617#4 394#0 394#1"/>
    </vehicle>
    <vehicle id="other_2_704" type="truck" depart="19115.00" departLane="best">
        <route edges="369#1 111 862#0 709 701#2 888#0 888#1 1480#0 1480#1 1480#2 1480#3 741#0 741#1 879#11 878#1 878#2 878#3 -733#3 -733#2 -733#1 -733#0 -692 777 779 778 -776"/>
    </vehicle>
    <vehicle id="other_1_849" type="trailer" depart="19142.00" departLane="best">
        <route edges="529#2 352 -353#1 -353#0 -352 884#1 -529#1 -529#0 351#3 351#4 -350 -519#2 -519#1 -519#0 -582#10 -582#9 -582#8 -582#7 -582#6 -582#5 -582#4 -582#3 -582#2 -582#1 618#0 618#1 -691#5 -691#4 -691#3 -691#2 -691#0 726#0 726#1 726#2 857#2 857#3 736 879#1 879#2 879#3 879#4 197 205#0 205#1 205#2 -202 211#1 210 -815#2 -815#1 -815#0 1492 895#2 895#3 895#4 800#0 800#1 800#2 791#5 791#0 791#1 791#2 1575 189#0 189#1"/>
        <stop parkingArea="152470" duration="43200.00"/>
    </vehicle>
    <vehicle id="other_3_583" type="truck" depart="19144.00" departLane="best">
        <route edges="-1517 -1505#0 306#1 306#2 306#3 223#0 223#1 223#2 223#3 223#4 223#5 223#6 223#7 223#8 223#9 223#10 295#1 295#2 818#0 818#1 213 299 -877 812#1 812#2 902#0 902#1 811#0 811#1 -790#0 903"/>
    </vehicle>
    <vehicle id="other_1_242" type="truck" depart="19175.00" departLane="best">
        <route edges="863#1 863#2 111 862#0 862#1 675 735"/>
    </vehicle>
    <vehicle id="other_3_489" type="coach" depart="19255.00" departLane="best">
        <route edges="-1273 -448 456 -913 -1422 -1285#2 -1282#2 -1282#1 -1282#0 -1287#1 -1287#0 851#3 851#0 851#1 -1244#4 -1244#3 -1244#2 -1244#1 -1244#0 -1291#3 470 -493#4 -493#3 -493#2 -493#1 -493#0 238#1 -491#1 -491#0 495#0"/>
    </vehicle>
    <vehicle id="other_1_746" type="delivery" depart="19292.00" departLane="best">
        <route edges="108 584#0 585#0 585#1 585#2 585#3 1481 593#0 593#1 593#2 593#3 593#4 593#5 564#0 588#1 588#2 691#2 -580 -632 -683#3 -683#2 -683#1 -683#0 -617#0 111 862#0 709 701#2 888#0 888#1 888#2 888#3 888#4 888#5 907#0 907#1 748#0 748#1 748#2 748#3 748#4 748#5 748#6 -787#3 -787#2 -787#1"/>
    </vehicle>
    <vehicle id="other_1_762" type="coach" depart="19448.00" departLane="best">
        <route edges="-705#0 283 732#1 732#2 732#3 747#0 282#1 282#2 -700#1 -700#0 -682#1 -682#0 879#7 879#8 879#9 -741#1 -741#0 -1480#3 -1480#2 -1480#1 -1480#0 -888#1 -743#1 -743#0 1484#0 1484#1 -698 -717 -730#8 -730#7 -730#6 -730#5 -730#4 -730#3 -752#6 -752#5 -752#4"/>
    </vehicle>
    <vehicle id="other_3_25" type="emergency" depart="19458.00" departLane="best">
        <route edges="1384#6 928#6 303 1573#1 923#0 754 926#1 1578 223#0 223#1 223#2 223#3 223#4 223#5 223#6 223#7 223#8 -927#3 -927#2 -927#1 -927#0 -816#1 -816#0 298#0 298#1 298#2 856#0 856#1 856#2 316#1 201 211#3 17 15#0 15#1 15#2 15#3 15#4 15#5 737#0 737#2 878#3 878#4 695 734#0 734#1 734#2 734#3 734#4 285"/>
    </vehicle>
    <vehicle id="other_1_24" type="emergency" depart="19467.00" departLane="best">
        <route edges="-694 -1480#1 -1480#0 -888#1 -888#0 863#0 863#1 863#2 617#0 617#1 617#2 617#3 617#4 617#5 619 621#0 621#2 594 447 561#0 561#1 561#2 1324#0 1324#1 1324#2 1324#3 1324#4 932#0 932#1 563#1 563#2 563#3 563#4 563#5"/>
    </vehicle>
    <vehicle id="other_1_234" type="emergency" depart="19559.00" departLane="best">
        <route edges="443#0 443#1 15#2 -773 191 -815#2 -815#1 -815#0 1492 895#2 895#3 895#4 895#1"/>
    </vehicle>
    <vehicle id="other_2_843" type="emergency" depart="19598.00" departLane="best">
        <route edges="829#1 829#2 829#3 829#4 829#5 829#6 829#7 829#8 902#1 902#2 902#3 -817#1 -804#2 -804#1 -804#0 815#0 815#1 815#2 -191 773 15#3 15#4 15#5 15#6 15#7 -17 211#4 202 205#3 205#0 163 320 81 -185 710 184 716 183 677 182 179 569#1 569#2 439#0 439#2 439#4"/>
    </vehicle>
    <vehicle id="other_2_666" type="coach" depart="19600.00" departLane="best">
        <route edges="-1277#0 939#2 -1511#1 -1511#2 -939#2 1277#0 1277#1 1277#2 1277#3 1277#4 -1275#0 130 1279 1288#0 1288#1 1247#1 1247#2 1247#3 1247#4 1300#1 1408#0 1408#1 1408#2 1408#3 1408#4 1408#5 1408#6 1408#7 497#1 243 494#0 494#1 -502#2 -502#1 -501 -860#3 -860#2 -860#1 -860#0 884#0 884#1 -529#1 -529#0"/>
    </vehicle>
    <vehicle id="other_GW1_196" type="delivery" depart="19609.00" departLane="best">
        <route edges="1406 196 844 1405#1 194 1263 195 -1404#27 -1404#26 -1404#25 -1404#24 -1404#23 -1404#21 -1404#20 -1404#19 -1404#18 -1404#17 -1404#16 -1404#13 -1404#12 -1404#11 -1404#10 -1404#9 -1404#8 -1404#7 -1404#6 -1404#5 -1404#3 -1404#2 -1404#1 -1404#0 315 162 316#0 316#1 201 211#3 211#4 202 205#3 -197 -747#2 -747#1 -747#0 732#4 732#5 857#0 857#1 -726#2 -726#1 -726#0 691#0 691#2 691#3 691#4 691#5 -618#1 -618#0 582#1 582#2 582#3 630#1 621#2 594 447 561#0 562#0 562#1 562#2 562#3 562#4 562#5 562#6 247#2 247#3"/>
    </vehicle>
    <vehicle id="other_1_28" type="delivery" depart="19632.00" departLane="best">
        <route edges="443#1 15#2 15#3 15#4 15#5 15#6 15#7 -17 211#4 202 205#3 -197 879#5 879#6 879#7 879#8 879#9 -741#1 -741#0 -1480#3 -1480#2 -1480#1 -1480#0 -888#1 -743#1 -743#0 1484#0 1484#1 -698 -717 -730#8 -730#7 -730#6 -730#5 -730#4"/>
        <stop parkingArea="152487" duration="43200.00"/>
    </vehicle>
    <vehicle id="other_GW1_141" type="emergency" depart="19635.00" departLane="best">
        <route edges="1406 196 844 1405#1 194 1263 195 -1404#27 -1404#26 -1404#25 -1404#24 -1404#23 -1404#21 -1404#20 -1404#19 -1404#18 -1404#17 -1404#16 -1404#13 -1404#12 -1404#11 -1404#10 -1404#9 -1404#8 -1404#7 -1404#6 -1404#5 -1404#3 -1404#2 -1404#1 -1404#0 315 162 316#0 316#1 201 211#3 17 15#0 15#1 15#2 15#3 15#4 15#5 737#0 737#2 878#3 -733#3 -733#2 -733#1 -733#0 -692 777 779 778"/>
    </vehicle>
    <vehicle id="other_GW1_225" type="truck" depart="19647.00" departLane="best">
        <route edges="1406 196 844 1405#1 194 1263 195 -1404#27 -1404#26 -1404#25 -1404#24 -1404#23 -1404#21 -1404#20 -1404#19 -1404#18 -1404#17 -1404#16 -1404#13 -1404#12 -1404#11 -1404#10 929#0 929#1 929#2 929#3 929#4 929#5 929#6 929#7 298#2 298#3 816#0 816#1 816#2 -787#4 -748#6 -748#5 -748#4 -748#3"/>
    </vehicle>
    <vehicle id="other_1_670" type="emergency" depart="19650.00" departLane="best">
        <route edges="-728#1 -728#0 -1369#0 -1373#1 -1373#0 924#1 925 729 717 698 1484#2 1484#3 743#0 743#1 888#1 1480#0 1480#1 1480#2 1480#3 741#0 741#1 879#11 878#1 878#2 878#3 -733#3 -733#2 -733#1 -733#0 -692 777 779 778 -806 783 408 854"/>
    </vehicle>
    <vehicle id="other_1_431" type="emergency" depart="19812.00" departLane="best">
        <route edges="183 677 182 179 569#1 569#2 569#3 569#4 585#3 1481 593#0 593#1 593#2 593#3 593#4 593#5 -564#2"/>
    </vehicle>
    <vehicle id="other_1_271" type="emergency" depart="19816.00" departLane="best">
        <route edges="-752#1 -752#0 -1372#4 -1372#3 -1372#2 -1372#0 -1369#3 -1369#2 -1369#1 1371 728#1 728#2 728#3 728#4 728#5 730#8 717 698 1484#2 1484#3 743#0 743#1 888#1 1480#0 1480#1 1480#2 1480#3 741#0 741#1 879#11 878#1 878#2 878#3 878#4 695 734#0 734#1 734#2 734#3 734#4 285 705#0 705#1"/>
    </vehicle>
    <vehicle id="other_1_6" type="trailer" depart="19829.00" departLane="best">
        <route edges="718 734#1 -186 -737#0 15#6 15#7 15#0 15#1 15#2 -773 191 -815#2 -815#1 -815#0 894 804#1 -1490"/>
    </vehicle>
    <vehicle id="other_3_372" type="emergency" depart="19899.00" departLane="best">
        <route edges="-1264 -1269#0 911#1 456 -913 -1422 -1285#2 -1282#2 -1282#1 -1282#0 -1287#1 -1287#0 851#3 851#0 -468#6 -468#5 -468#3 -468#2 -468#1 -468#0 1300#1 1408#0 1408#1 1408#2 1408#3 1408#4 1408#5 1408#6 1408#7 497#1 243 494#0 494#1 494#2 494#3 494#4 351#2 351#3 351#4 -350 -519#2 -519#1 -519#0 -582#10 -582#9 -582#8 -582#7 -582#6 -582#5 -582#4 -582#3 -582#2 -582#1 618#0 618#1 -691#5 -691#4 -691#3 -691#2 -691#0 726#0 726#1 726#2 857#2 857#3 736 879#1 879#2 879#3 879#4 197 205#0 205#1 205#2 -202 211#1 210 -815#2 -815#1 -815#0 1492 895#2 895#3 803#0 885#0 885#1 358#1 358#2 358#3 -348"/>
    </vehicle>
    <vehicle id="other_GW1_323" type="truck" depart="19938.00" departLane="best">
        <route edges="420 164 422 431 469 415#3 415#4 1309#0 1309#1 1309#2 1309#3 1309#4 1309#5 1309#6 1309#7 -1311#1 -1311#0 -1313#0 -1250#5 -1250#4 -1252#11 -1252#10 -1252#9 -1252#8 -1252#7 -1252#6 -1252#5 -1252#4 -1252#2 -1252#1 -1252#0 -1343#1 -1343#0 1341#14 1341#15 1341#16 918 920 622#0 622#1 622#2 -624#1"/>
    </vehicle>
    <vehicle id="other_2_267" type="delivery" depart="19939.00" departLane="best">
        <route edges="-819#5 -819#4 -819#3 -819#2 -819#1 -819#0 298#1 -929#7 -929#6 -929#5 -929#4 -929#3 -929#2 -929#1 -929#0 -1404#9 -1404#8 -1404#7 -1404#6 -1404#5 -1580 810#1 1404#3 1404#5 1404#6 1404#7 1404#8 1404#9 929#0 929#1 929#2 929#3 929#4 929#5 929#6"/>
    </vehicle>
    <vehicle id="other_1_70" type="delivery" depart="19964.00" departLane="best">
        <route edges="320 81 -185 710 184 716 183 677 182 179 569#1 569#2 569#3 569#4 585#3 1481 593#0 593#1 593#2 593#3 593#4 593#5 564#0 588#1 588#2 691#2 -580 -632 -683#3 -683#2 -696 -622#3 -622#2 -622#1 -622#0 -920 -1486#3 -1486#2 -1486#1 -1486#0 1332#1 1332#2 1332#3 1332#4 1332#5 1332#6 1332#7 1332#8 924#1 1255 1365 728#5 730#8"/>
    </vehicle>
    <vehicle id="other_3_284" type="truck" depart="19965.00" departLane="best">
        <route edges="-770#1 -770#0 1384#6 928#6 303 1573#1 923#0 754 926#1 1578 223#0 223#1 223#2 223#3 223#4 223#5 223#6 223#7 223#8 223#9 223#10 295#1 295#2 295#3 -808#1 -808#0 192 -809#1 -809#0 752#0 752#1 752#2 752#3 752#4 -746#2 -746#1 -746#0 -1369#1 1371 728#1 728#2 728#3"/>
    </vehicle>
    <vehicle id="other_3_411" type="trailer" depart="19977.00" departLane="best">
        <route edges="456 -913 -1422 -1285#2 -1282#2 -1282#1 -1282#0 -1287#1 -1287#0 851#3 851#0 -468#6 -468#5 -468#3 -468#2 -468#1 -468#0 1300#1 1408#0 1408#1 1408#2 1408#3 1408#4 1408#5 1408#6 1408#7 497#1 243 494#0 494#1 494#2 494#3 494#4 351#2 351#3 351#4 -350 -519#2 -519#1 -519#0 -582#10 -582#9 -582#8 -582#7 -582#6 -582#5 -582#4 -582#3 -582#2 -582#1 618#0 618#1 -691#5 -691#4 -691#3 -691#2 -691#0 726#0 726#1 726#2 857#2 857#3 736 879#1 879#2 879#3 879#4 879#5 879#6 879#7 879#8 879#9 879#11 878#1 878#2 878#3 -733#3 -733#2 -733#1 -733#0 -692 679 -688 -689 690 715"/>
    </vehicle>
    <vehicle id="other_1_522" type="truck" depart="19984.00" departLane="best">
        <route edges="-728#2 -728#1 -728#0 -1369#0 -1373#1 -1373#0 924#1 925 729 717 698 1484#2 1484#3 743#0 743#1 888#1 1480#0 1480#1 1480#2 1480#3 741#0 741#1 879#11 878#1 878#2 878#3 -733#3 -733#2 -733#1 -733#0"/>
    </vehicle>
    <vehicle id="other_1_883" type="delivery" depart="20004.00" departLane="best">
        <route edges="-291 293#4 -293#1 -293#0 -790#2 -790#1 -790#0 903 902#3 -817#1 -804#2 -804#1 -804#0 815#0 815#1 815#2 -191 773 15#3 15#4 15#5 15#6 15#7 -17 211#4 202 205#3 -197 879#5 879#6 879#7 879#8 879#9 -741#1 -741#0 -1480#3 -1480#2 -1480#1 -1480#0 888#2 888#3 888#4 888#5 907#0 907#1 748#0 748#1 748#2 748#3 739#0 739#1 739#2 739#3 708#0 708#1 -748#0 -907#1 -907#0 -888#5"/>
    </vehicle>
    <vehicle id="other_GW1_139" type="delivery" depart="20011.00" departLane="best">
        <route edges="420 164 422 431 469 415#3 415#4 1309#0 1309#1 1309#2 1309#3 1309#4 1309#5 1309#6 1309#7 -1311#1 -1311#0 -1313#0 -1250#5 -1250#4 -1250#3 -1250#2 -1250#1 -1250#0 850#3 850#4 850#0 850#1 850#2 1250#0 1250#1 1250#2 1250#3"/>
    </vehicle>
    <vehicle id="other_3_67" type="coach" depart="20030.00" departLane="best">