<?xml version="1.0" encoding="UTF-8"?>
<!-- generated on 2019-07-15 12:36:13.892982 by $Id$
  options: -n /Users/codeca/Active/MoSTScenario/scenario/in/most.net.xml -b 14400 -e 50400 -p 900 <doubleminus>random-begin <doubleminus>seed 42 <doubleminus>no-vtypes <doubleminus>ptstops /Users/codeca/Active/MoSTScenario/scenario/in/add/most.busstops.add.xml <doubleminus>ptlines pt/most.buslines.add.xml -o out/most.buses.flows.xml
-->
<routes xmlns:xsi="http://www.w3.org/2001/XMLSchema-instance" xsi:noNamespaceSchemaLocation="http://sumo.dlr.de/xsd/routes_file.xsd">
    <route id="bus_M2:France" edges="-153424#0 -153433#0 -153451#6 -153451#5 -153451#4 -153451#3 -153451#2 -153451#1 -153451#0 -153452#1 153457 -153459#0 -152256 153460" >
        <stop busStop="131165" duration="30.00" until="46.0"/> <!-- La Turbie Marie -->
        <stop busStop="131169" duration="30.00" until="394.0"/> <!-- 131169 -->
    </route>
    <route id="bus_M4:Train" edges="-152909 152909 153476#14 153476#15 153476#16 153476#17 153476#18 153476#19 153476#20 153476#22 -153010#1 -153010#0 -152920#2" >
        <stop busStop="131181" duration="30.00" until="38.0"/> <!-- L'Eglise -->
        <stop busStop="131179" duration="30.00" until="170.0"/> <!-- La Source -->
        <stop busStop="131035" duration="30.00" until="253.0"/> <!-- Les Cigognes -->
        <stop busStop="131196" duration="30.00" until="311.0"/> <!-- Bois Joli -->
    </route>
    <route id="bus_M4:HotelVille" edges="152920#2 153010#0 153010#1 -153476#22 -153476#20 -153476#19 -153476#18 -153476#17 -153476#16 -153476#15 -153476#14 -153476#13" >
        <stop busStop="131027" duration="30.00" until="43.0"/> <!-- Bois Joli -->
        <stop busStop="131197" duration="30.00" until="102.0"/> <!-- Les Cigognes -->
        <stop busStop="131178" duration="30.00" until="176.0"/> <!-- Guillaume Apollinaire -->
        <stop busStop="131180" duration="30.00" until="254.0"/> <!-- L'Eglise -->
        <stop busStop="131182" duration="30.00" until="319.0"/> <!-- Hotel de Ville -->
    </route>
    <route id="bus_M2:Turbie" edges="-153460 152256 153459#0 -153457 153452#1 153452#2 153451#1 153451#2 153451#3 153451#4 153451#5 153451#6 153451#7" >
        <stop busStop="131168" duration="30.00" until="41.0"/> <!-- 131168 -->
        <stop busStop="131030" duration="30.00" until="391.0"/> <!-- La Turbie Marie -->
    </route>
    <route id="bus_M1:France" edges="152927 152257 153477#0 -152903 -153458#0 -153459#0 -152256 153460" >
        <stop busStop="131173" duration="30.00" until="76.0"/> <!-- Parking Saint-Laurent d'Eze -->
        <stop busStop="131031" duration="30.00" until="242.0"/> <!-- Chapelle de Saint-Laurent -->
        <stop busStop="131169" duration="30.00" until="616.0"/> <!-- 131169 -->
    </route>
    <route id="bus_M1:Eze" edges="-153460 152256 153459#0 153459#1 152903 -153477#0 -152257 -152927" >
        <stop busStop="131168" duration="30.00" until="40.0"/> <!-- 131168 -->
        <stop busStop="131163" duration="30.00" until="432.0"/> <!-- Chapelle de Saint-Laurent -->
        <stop busStop="131172" duration="30.00" until="579.0"/> <!-- Parking Saint-Laurent d'Eze -->
    </route>
    <route id="bus_M5:PontUnion" edges="152993#0 152993#1 152239 153357#0 153357#1 153357#2 -152957 -152283 152554" >
        <stop busStop="131159" duration="30.00" until="64.0"/> <!-- Ramingao -->
        <stop busStop="131156" duration="30.00" until="143.0"/> <!-- 2e Escalier -->
        <stop busStop="131154" duration="30.00" until="203.0"/> <!-- 1er Escalier -->
        <stop busStop="131152" duration="30.00" until="287.0"/> <!-- Massolin -->
        <stop busStop="131079" duration="30.00" until="390.0"/> <!-- Cypris -->
        <stop busStop="131078" duration="30.00" until="459.0"/> <!-- Orchidees -->
        <stop busStop="131076" duration="30.00" until="598.0"/> <!-- Victoria -->
        <stop busStop="131195" duration="30.00" until="685.0"/> <!-- Pont de l'Union -->
    </route>
    <route id="bus_M5:Ramingao" edges="153656 152283 -152555 -153357#2 -153357#1 -153357#0 -152239 -152993#1 -152993#0" >
        <stop busStop="131141" duration="30.00" until="44.0"/> <!-- Pont de l'Union -->
        <stop busStop="131199" duration="30.00" until="138.0"/> <!-- 131199 -->
        <stop busStop="131077" duration="30.00" until="277.0"/> <!-- Le Cirta -->
        <stop busStop="131075" duration="30.00" until="341.0"/> <!-- Mairie -->
        <stop busStop="131153" duration="30.00" until="491.0"/> <!-- 1er Escalier -->
        <stop busStop="131155" duration="30.00" until="553.0"/> <!-- 2e Escalier -->
        <stop busStop="131160" duration="30.00" until="634.0"/> <!-- Ramingao -->
    </route>
    <route id="bus_M3:Turbie" edges="152870#5 153006#0 153006#1 153006#2 153006#3 -152166 -152330#5 -152330#4 -152330#3 -152330#2 -152330#1 -152330#0 -152409#3 -152409#2 -152409#1 -152409#0 -152908#7 -152908#6 -152908#5 -152908#3 -152908#2 -152908#1 -152908#0 153433#1" >
        <stop busStop="131087" duration="30.00" until="54.0"/> <!-- Hopital -->
        <stop busStop="131022" duration="30.00" until="150.0"/> <!-- 131022 -->
        <stop busStop="131033" duration="30.00" until="229.0"/> <!-- 131033 -->
        <stop busStop="131039" duration="30.00" until="318.0"/> <!-- 131039 -->
        <stop busStop="131024" duration="30.00" until="652.0"/> <!-- 131024 -->
        <stop busStop="131040" duration="30.00" until="761.0"/> <!-- 131040 -->
        <stop busStop="131042" duration="30.00" until="846.0"/> <!-- La Turbie Marie -->
    </route>
    <route id="bus_M3:Hospital" edges="153451#7 152908#0 152908#1 152908#2 152908#3 152908#5 152908#6 152908#7 152908#8 152409#1 152409#2 152409#3 152330#0 152330#1 152330#2 152330#3 152330#4 152330#5 152166 -153006#3 -153006#2 -153006#1 -153006#0 -152899#1 -152899#0 152402#0 152402#1 152402#2 152402#3 152899#0 152899#1" >
        <stop busStop="131030" duration="30.00" until="71.0"/> <!-- La Turbie Marie -->
        <stop busStop="131038" duration="30.00" until="155.0"/> <!-- 131038 -->
        <stop busStop="131020" duration="30.00" until="267.0"/> <!-- 131020 -->
        <stop busStop="131019" duration="30.00" until="587.0"/> <!-- 131019 -->
        <stop busStop="131037" duration="30.00" until="694.0"/> <!-- 131037 -->
        <stop busStop="131029" duration="30.00" until="771.0"/> <!-- 131029 -->
        <stop busStop="131056" duration="30.00" until="932.0"/> <!-- Hopital -->
    </route>
    <route id="bus_1:Monaco" edges="152349 152582#1 152582#2 152582#3 152582#4 152454#2 152454#3 152454#4 -152453 -152223 -152169 -152605#2 -152605#1 -152605#0 -152667#10 -152667#9 -152653 -152673 -152659 -152651 -152949 -152661 -152667#3 -152667#2 -152667#1 152702#0 152702#1 152713 -152713 -152702#1 -152688#2 -152688#1 -152688#0 152672#1 152672#2 -152775#0 152810#0 152810#1 152810#2 152820 152960#1 152960#2 152960#3 152960#4 152960#5 152960#6 152960#7 152960#8 -153273#2 -153273#1 -152135#1 -152135#0 152802 152818#1 152818#2 152818#3 152816#0 152816#1 152816#2 152816#3 152831#0 152831#1 152831#2 152960#5 152960#6 152960#7 152960#8 152960#10 152959#2 152959#3 152959#4 -152817#3 -152817#2 -152817#1 -152817#0 -152776 152763 -152772 -152773" >
        <stop busStop="131167" duration="30.00" until="41.0"/> <!-- Saint-Roman (Bus 1) -->
        <stop busStop="131134" duration="30.00" until="115.0"/> <!-- Carmes -->
        <stop busStop="131125" duration="30.00" until="197.0"/> <!-- La Rousse -->
        <stop busStop="131129" duration="30.00" until="254.0"/> <!-- Place des Moulins -->
        <stop busStop="131135" duration="30.00" until="325.0"/> <!-- Saint-Charles -->
        <stop busStop="131063" duration="30.00" until="406.0"/> <!-- Monte-Carlo -->
        <stop busStop="131064" duration="30.00" until="523.0"/> <!-- Square Beaumarchais -->
        <stop busStop="131133" duration="30.00" until="590.0"/> <!-- Ostende -->
        <stop busStop="131061" duration="30.00" until="653.0"/> <!-- Place Sainte-Devote (Gare) -->
        <stop busStop="131123" duration="30.00" until="704.0"/> <!-- Princesse Florestine -->
        <stop busStop="131119" duration="30.00" until="802.0"/> <!-- Place d'Armes (Port) -->
        <stop busStop="131117" duration="30.00" until="1021.0"/> <!-- Monaco Ville (le Rocher) -->
    </route>
    <route id="bus_2:Monaco" edges="152896 152814#1 152814#2 152814#3 152814#4 152814#5 152814#6 152814#7 152814#8 152814#9 152814#10 152814#11 152759 152230 152785#0 152819 152944#2 152234 152701#0 152701#1 152701#2 152701#3 152701#4 152701#5 152703 152704 152702#0 152702#1 152713 -152713 -152702#1 -152688#2 -152688#1 -152688#0 152672#1 152672#2 -152775#0 152810#0 152810#1 152810#2 152820 152960#1 152960#2 152960#3 152960#4 152960#5 152960#6 152960#7 152960#8 152960#10 152959#2 152959#3 152959#4 -152817#3 -152817#2 -152817#1 -152817#0 -152776 152763 -152772 -152773" >
        <stop busStop="131138" duration="30.00" until="38.0"/> <!-- Jardin Exotique -->
        <stop busStop="131049" duration="30.00" until="123.0"/> <!-- Villa Paloma -->
        <stop busStop="131139" duration="30.00" until="162.0"/> <!-- Rotondes -->
        <stop busStop="131070" duration="30.00" until="227.0"/> <!-- Moneghetti -->
        <stop busStop="131113" duration="30.00" until="286.0"/> <!-- Belgique -->
        <stop busStop="131080" duration="30.00" until="366.0"/> <!-- Pont Sainte-Devote -->
        <stop busStop="131202" duration="30.00" until="449.0"/> <!-- Roqueville -->
        <stop busStop="131063" duration="30.00" until="543.0"/> <!-- Monte-Carlo -->
        <stop busStop="131064" duration="30.00" until="661.0"/> <!-- Square Beaumarchais -->
        <stop busStop="131133" duration="30.00" until="732.0"/> <!-- Ostende -->
        <stop busStop="131061" duration="30.00" until="815.0"/> <!-- Place Sainte-Devote (Gare) -->
        <stop busStop="131123" duration="30.00" until="865.0"/> <!-- Princesse Florestine -->
        <stop busStop="131085" duration="30.00" until="956.0"/> <!-- Place d'Armes (vers Monaco Ville) -->
        <stop busStop="131117" duration="30.00" until="1060.0"/> <!-- Monaco Ville (le Rocher) -->
    </route>
    <route id="bus_5:Larvotto" edges="152899#1 152899#2 -152870#4 -152870#3 -152870#2 -152870#1 -152870#0 153552#3 153552#0 152945#0 152945#1 152945#2 152814#11 152759 152230 152785#0 152819 152944#2 152234 152701#0 152701#1 152701#2 152701#3 152701#4 152701#5 152703 152704 152667#1 152667#2 152667#3 -152668#2 -152668#1 -152668#0 -152677#4 -152677#3 -152677#2 -152677#1 -152677#0 152654#0 152654#1 152654#2 152534#0 152534#2 152534#4 152534#5 152534#6 152534#7" >
        <stop busStop="131056" duration="30.00" until="54.0"/> <!-- Hopital -->
        <stop busStop="131106" duration="30.00" until="114.0"/> <!-- Observatoire -->
        <stop busStop="131201" duration="30.00" until="172.0"/> <!-- Parc Princesse Antoinette -->
        <stop busStop="131107" duration="30.00" until="231.0"/> <!-- Bosio -->
        <stop busStop="131124" duration="30.00" until="303.0"/> <!-- Belgique -->
        <stop busStop="131080" duration="30.00" until="386.0"/> <!-- Pont Sainte-Devote -->
        <stop busStop="131202" duration="30.00" until="448.0"/> <!-- Roqueville -->
        <stop busStop="131058" duration="30.00" until="532.0"/> <!-- Monte-Carlo (Tourisme) -->
        <stop busStop="131127" duration="30.00" until="611.0"/> <!-- Place du Casino -->
        <stop busStop="131088" duration="30.00" until="682.0"/> <!-- Spelugues -->
        <stop busStop="131044" duration="30.00" until="744.0"/> <!-- Portier -->
        <stop busStop="131109" duration="30.00" until="806.0"/> <!-- Grimaldi Forum/Villa Sauber -->
        <stop busStop="131132" duration="30.00" until="874.0"/> <!-- Plages -->
        <stop busStop="131110" duration="30.00" until="931.0"/> <!-- Sea Club -->
        <stop busStop="131084" duration="30.00" until="988.0"/> <!-- Larvotto -->
    </route>
    <route id="bus_1:SaintRoman" edges="-152773 152774 -152760 -152763 152776 152817#0 152817#1 152817#2 152817#3 152959#5 152959#1 152959#2 152959#3 -152821#2 -152821#1 -152821#0 152137#6 152137#7 -152139 152318#4 152309 152312#3 -152305 152960#5 152960#6 152960#7 152960#8 -153273#2 -153273#1 -152135#1 -152135#0 152802 152818#1 152818#2 152818#3 152389 152789#0 152789#1 152828 152797#1 -152797#1 -152828 -152789#1 -152789#0 152387 152816#1 152816#2 152816#3 152816#4 152816#5 152787#0 152787#1 152787#2 152762 152289 152662 152654#2 152654#3 152654#4 152670#3 152677#0 152677#1 152677#2 152677#3 152677#4 152677#5 -152657#2 -152657#1 -152657#0 152667#1 152667#2 152667#3 152667#4 152667#5 152667#6 152667#7 152667#8 152667#9 152667#10 152667#11 152605#1 152605#2 152169 152223 152453 152454#1 -152582#4 -152582#3 -152582#2 152349" >
        <stop busStop="131117" duration="30.00" until="39.0"/> <!-- Monaco Ville (le Rocher) -->
        <stop busStop="131119" duration="30.00" until="305.0"/> <!-- Place d'Armes (Port) -->
        <stop busStop="131045" duration="30.00" until="483.0"/> <!-- Princesse Stephanie -->
        <stop busStop="131093" duration="30.00" until="536.0"/> <!-- Stade Nautique -->
        <stop busStop="131094" duration="30.00" until="592.0"/> <!-- Princesse Antoinette -->
        <stop busStop="131095" duration="30.00" until="671.0"/> <!-- Kennedy -->
        <stop busStop="131096" duration="30.00" until="736.0"/> <!-- Auditorium Rainier III -->
        <stop busStop="131044" duration="30.00" until="822.0"/> <!-- Portier -->
        <stop busStop="131052" duration="30.00" until="894.0"/> <!-- Spelugues -->
        <stop busStop="131051" duration="30.00" until="953.0"/> <!-- Citronniers -->
        <stop busStop="131060" duration="30.00" until="1006.0"/> <!-- Place du Casino -->
        <stop busStop="131058" duration="30.00" until="1080.0"/> <!-- Monte-Carlo (Tourisme) -->
        <stop busStop="131062" duration="30.00" until="1138.0"/> <!-- Saint-Charles -->
        <stop busStop="131130" duration="30.00" until="1204.0"/> <!-- Place des Moulins -->
        <stop busStop="131128" duration="30.00" until="1265.0"/> <!-- La Rousse -->
        <stop busStop="131126" duration="30.00" until="1335.0"/> <!-- Carmes -->
        <stop busStop="131167" duration="30.00" until="1403.0"/> <!-- Saint-Roman (Bus 1) -->
    </route>
    <route id="bus_2:Jardin" edges="-152773 152774 -152760 -152763 152776 152817#0 152817#1 152817#2 152817#3 152959#5 152959#1 152959#2 152959#3 -152821#2 -152821#1 -152821#0 152137#6 152137#7 -152139 152318#4 152309 152312#3 -152305 152960#5 152960#6 152960#7 152960#8 -153273#2 -153273#1 -152135#1 -152135#0 152802 152818#1 152818#2 152818#3 152389 152789#0 152789#1 152828 152797#1 -152797#1 -152828 -152789#1 -152789#0 152387 152816#1 152816#2 152816#3 152816#4 152816#5 -152810#2 -152810#1 -152810#0 152775#0 152775#2 152775#3 152775#4 152775#5 -152702#1 -152702#0 152667#1 152667#2 152667#3 152714 152174#0 152174#1 -152701#5 -152701#4 -152701#3 -152701#2 -152701#1 -152701#0 152229 152943#0 152943#1 -152814#11 -152814#10 -152814#9 -152814#8 -152814#7 -152814#6 -152814#5 -152814#4 -152814#3 -152814#2 152896" >
        <stop busStop="131117" duration="30.00" until="41.0"/> <!-- Monaco Ville (le Rocher) -->
        <stop busStop="131119" duration="30.00" until="306.0"/> <!-- Place d'Armes (Port) -->
        <stop busStop="131045" duration="30.00" until="487.0"/> <!-- Princesse Stephanie -->
        <stop busStop="131093" duration="30.00" until="539.0"/> <!-- Stade Nautique -->
        <stop busStop="131094" duration="30.00" until="594.0"/> <!-- Princesse Antoinette -->
        <stop busStop="131097" duration="30.00" until="665.0"/> <!-- Ostende -->
        <stop busStop="131092" duration="30.00" until="727.0"/> <!-- Terrasses du Casino -->
        <stop busStop="131058" duration="30.00" until="842.0"/> <!-- Monte-Carlo (Tourisme) -->
        <stop busStop="131091" duration="30.00" until="912.0"/> <!-- Cremaillere -->
        <stop busStop="131098" duration="30.00" until="994.0"/> <!-- Roqueville -->
        <stop busStop="131048" duration="30.00" until="1075.0"/> <!-- Pont Sainte-Devote -->
        <stop busStop="131120" duration="30.00" until="1137.0"/> <!-- Belgique -->
        <stop busStop="131099" duration="30.00" until="1194.0"/> <!-- Moneghetti -->
        <stop busStop="131136" duration="30.00" until="1259.0"/> <!-- Rotondes -->
        <stop busStop="131050" duration="30.00" until="1311.0"/> <!-- Villa Paloma -->
        <stop busStop="131138" duration="30.00" until="1405.0"/> <!-- Jardin Exotique -->
    </route>
    <route id="bus_6:Fontvieille" edges="152534#7 152535#0 152535#1 152535#2 152535#4 152535#6 152654#4 152670#3 152677#0 152677#1 152677#2 152677#3 152677#4 152677#5 -152657#2 -152657#1 -152657#0 152702#0 152702#1 152713 -152713 -152702#1 -152688#2 -152688#1 -152688#0 152672#1 152672#2 -152775#0 152810#0 152810#1 152810#2 152820 152960#1 152960#2 152960#3 152960#4 152960#5 152960#6 152960#7 152960#8 -153273#2 -153273#1 -152135#1 -152135#0 152802 152818#1 152818#2 152818#3 152389 152789#0 152789#1 152828 152797#1 -152797#1 -152828 -152789#1 -152789#0 152468 152296 153640 153639" >
        <stop busStop="131084" duration="30.00" until="46.0"/> <!-- Larvotto -->
        <stop busStop="131210" duration="30.00" until="109.0"/> <!-- Sea Club -->
        <stop busStop="131081" duration="30.00" until="170.0"/> <!-- Plages -->
        <stop busStop="131111" duration="30.00" until="230.0"/> <!-- Grimaldi Forum/Villa Sauber -->
        <stop busStop="131083" duration="30.00" until="288.0"/> <!-- Portier -->
        <stop busStop="131052" duration="30.00" until="358.0"/> <!-- Spelugues -->
        <stop busStop="131051" duration="30.00" until="418.0"/> <!-- Citronniers -->
        <stop busStop="131060" duration="30.00" until="470.0"/> <!-- Place du Casino -->
        <stop busStop="131063" duration="30.00" until="545.0"/> <!-- Monte-Carlo -->
        <stop busStop="131064" duration="30.00" until="662.0"/> <!-- Square Beaumarchais -->
        <stop busStop="131133" duration="30.00" until="730.0"/> <!-- Ostende -->
        <stop busStop="131061" duration="30.00" until="792.0"/> <!-- Place Sainte-Devote (Gare) -->
        <stop busStop="131123" duration="30.00" until="844.0"/> <!-- Princesse Florestine -->
        <stop busStop="131119" duration="30.00" until="944.0"/> <!-- Place d'Armes (Port) -->
        <stop busStop="131122" duration="30.00" until="1008.0"/> <!-- Princesse Stephanie -->
        <stop busStop="131089" duration="30.00" until="1203.0"/> <!-- Fontvieille - Centre Commercial -->
    </route>
    <route id="bus_4:Fontvieille" edges="-152349 -152582#1 -152582#0 152576 152219 152346#1 152221 152216 153376 152221 152585#1 152350 152582#0 152582#1 152582#2 152582#3 152582#4 152454#2 152454#3 152454#4 -152453 -152223 -152169 -152605#2 -152605#1 -152605#0 -152667#10 -152667#9 -152653 -152673 -152659 -152651 -152949 -152661 152714 152174#0 152174#1 -152701#5 -152701#4 -152701#3 -152701#2 -152701#1 -152701#0 152229 152943#0 152793 152785#2 152167 152969#0 152969#1 152969#2 152969#3 -152795#1 152824#0 152824#1 152137#7 -152139 152318#4 152309 152312#3 -152305 152960#5 152960#6 152960#7 152960#8 -153273#2 -153273#1 -152135#1 -152135#0 152802 152818#1 152818#2 152818#3 152389 152789#0 152789#1 152828 152797#1 -152797#1 -152828 -152789#1 -152789#0 152468 152296 153640 153639" >
        <stop busStop="131086" duration="30.00" until="40.0"/> <!-- Saint-Roman (Bus 4) -->
        <stop busStop="131082" duration="30.00" until="152.0"/> <!-- Varavilla -->
        <stop busStop="131164" duration="30.00" until="214.0"/> <!-- Saint-Roman -->
        <stop busStop="131134" duration="30.00" until="284.0"/> <!-- Carmes -->
        <stop busStop="131125" duration="30.00" until="366.0"/> <!-- La Rousse -->
        <stop busStop="131129" duration="30.00" until="425.0"/> <!-- Place des Moulins -->
        <stop busStop="131135" duration="30.00" until="496.0"/> <!-- Saint-Charles -->
        <stop busStop="131091" duration="30.00" until="574.0"/> <!-- Cremaillere -->
        <stop busStop="131098" duration="30.00" until="655.0"/> <!-- Roqueville -->
        <stop busStop="131048" duration="30.00" until="734.0"/> <!-- Pont Sainte-Devote -->
        <stop busStop="131100" duration="30.00" until="801.0"/> <!-- Louis Aureglia -->
        <stop busStop="131046" duration="30.00" until="866.0"/> <!-- Castelleretto -->
        <stop busStop="131047" duration="30.00" until="928.0"/> <!-- Honore II -->
        <stop busStop="131119" duration="30.00" until="1087.0"/> <!-- Place d'Armes (Port) -->
        <stop busStop="131122" duration="30.00" until="1150.0"/> <!-- Princesse Stephanie -->
        <stop busStop="131089" duration="30.00" until="1342.0"/> <!-- Fontvieille - Centre Commercial -->
    </route>
    <route id="bus_6:Larvotto" edges="153639 152874#4 152874#5 152874#0 152451 152458#0 152458#1 152458#2 152398#0 152398#1 152646 -152298 -152873#3 -152873#2 -152873#1 -152873#0 152983 152982#3 -152900#1 -152900#0 152975#3 152975#4 152883#0 152883#1 152883#2 152874#5 152874#0 152874#1 152874#2 153638 152297#0 152297#0-AddedOffRampEdge 152297#1 152967 152816#2 152816#3 152816#4 152816#5 -152810#2 -152810#1 -152810#0 152775#0 152775#2 152775#3 152775#4 152775#5 -152702#1 -152702#0 152667#1 152667#2 152667#3 -152668#2 -152668#1 -152668#0 -152677#4 -152677#3 -152677#2 -152677#1 -152677#0 152654#0 152654#1 152654#2 152534#0 152534#2 152534#4 152534#5 152534#6 152534#7" >
        <stop busStop="131089" duration="30.00" until="43.0"/> <!-- Fontvieille - Centre Commercial -->
        <stop busStop="131103" duration="30.00" until="123.0"/> <!-- Papalins -->
        <stop busStop="131059" duration="30.00" until="194.0"/> <!-- Roseraie -->
        <stop busStop="131102" duration="30.00" until="247.0"/> <!-- Heliport -->
        <stop busStop="131203" duration="30.00" until="307.0"/> <!-- Stade Louis II -->
        <stop busStop="131209" duration="30.00" until="402.0"/> <!-- Albert II -->
        <stop busStop="131104" duration="30.00" until="467.0"/> <!-- Port de Fontvieille -->
        <stop busStop="131093" duration="30.00" until="555.0"/> <!-- Stade Nautique -->
        <stop busStop="131094" duration="30.00" until="610.0"/> <!-- Princesse Antoinette -->
        <stop busStop="131097" duration="30.00" until="695.0"/> <!-- Ostende -->
        <stop busStop="131092" duration="30.00" until="757.0"/> <!-- Terrasses du Casino -->
        <stop busStop="131058" duration="30.00" until="847.0"/> <!-- Monte-Carlo (Tourisme) -->
        <stop busStop="131127" duration="30.00" until="927.0"/> <!-- Place du Casino -->
        <stop busStop="131088" duration="30.00" until="1001.0"/> <!-- Spelugues -->
        <stop busStop="131044" duration="30.00" until="1063.0"/> <!-- Portier -->
        <stop busStop="131109" duration="30.00" until="1124.0"/> <!-- Grimaldi Forum/Villa Sauber -->
        <stop busStop="131132" duration="30.00" until="1193.0"/> <!-- Plages -->
        <stop busStop="131110" duration="30.00" until="1248.0"/> <!-- Sea Club -->
        <stop busStop="131084" duration="30.00" until="1303.0"/> <!-- Larvotto -->
    </route>
    <route id="bus_4:SaintRoman" edges="153639 152874#4 152874#5 152874#0 152451 152458#0 152458#1 152458#2 152398#0 152398#1 152646 -152298 -152873#3 -152873#2 -152873#1 -152873#0 152983 152982#3 152982#4 152973 -152895#1 -153476#0 152418 152270 152419#0 152419#1 152308 152318#3 152139 152137#0 152137#1 152137#2 152137#3 152137#4 152137#5 152821#0 152821#1 152821#2 152959#4 152959#5 152959#1 152959#2 152959#3 -152821#2 -152821#1 -152821#0 152137#6 152137#7 152137#0 152138 152968 152419#0 -152938#2 -152938#1 -152938#0 152402#3 152899#0 152899#1 152899#2 -152870#4 -152832#6 -152832#5 -152832#4 -152832#3 -152832#2 -152832#1 -152832#0 -152987#1 -152987#0 -152969#3 -152969#2 -152969#1 -152969#0 -152167 152944#0 152944#1 152944#2 152234 152701#0 152701#1 152701#2 152701#3 152701#4 152701#5 152703 152704 152667#1 152667#2 152667#3 152667#4 152667#5 152667#6 152667#7 152667#8 152667#9 152667#10 152667#11 152605#1 152605#2 152169 152223 152453 152454#1 -152582#4 -152582#3 -152582#2 -152582#1 -152349" >
        <stop busStop="131089" duration="30.00" until="44.0"/> <!-- Fontvieille - Centre Commercial -->
        <stop busStop="131103" duration="30.00" until="123.0"/> <!-- Papalins -->
        <stop busStop="131059" duration="30.00" until="195.0"/> <!-- Roseraie -->
        <stop busStop="131102" duration="30.00" until="246.0"/> <!-- Heliport -->
        <stop busStop="131203" duration="30.00" until="306.0"/> <!-- Stade Louis II -->
        <stop busStop="131189" duration="30.00" until="396.0"/> <!-- Cimetiere -->
        <stop busStop="131116" duration="30.00" until="516.0"/> <!-- Place d'Armes (Charles III) -->
        <stop busStop="131101" duration="30.00" until="880.0"/> <!-- Castelleretto -->
        <stop busStop="131036" duration="30.00" until="936.0"/> <!-- Louis Aureglia -->
        <stop busStop="131080" duration="30.00" until="1010.0"/> <!-- Pont Sainte-Devote -->
        <stop busStop="131202" duration="30.00" until="1072.0"/> <!-- Roqueville -->
        <stop busStop="131058" duration="30.00" until="1179.0"/> <!-- Monte-Carlo (Tourisme) -->
        <stop busStop="131062" duration="30.00" until="1237.0"/> <!-- Saint-Charles -->
        <stop busStop="131130" duration="30.00" until="1303.0"/> <!-- Place des Moulins -->
        <stop busStop="131128" duration="30.00" until="1363.0"/> <!-- La Rousse -->
        <stop busStop="131126" duration="30.00" until="1434.0"/> <!-- Carmes -->
        <stop busStop="131086" duration="30.00" until="1505.0"/> <!-- Saint-Roman (Bus 4) -->
    </route>
    <route id="bus_3:Fontvieille" edges="152836#6 152814#3 152814#4 152814#5 152814#6 152814#7 152814#8 152814#9 152814#10 -152945#2 -152945#1 -152945#0 153552#1 153552#2 152870#0 152870#1 152870#2 152870#3 152870#4 152870#5 -152899#1 -152899#0 152402#0 152402#1 152402#2 152938#0 152938#1 152938#2 152419#1 152308 152318#3 152139 152137#0 152137#1 152137#2 152137#3 152137#4 152137#5 152821#0 152821#1 152821#2 152959#4 152959#5 152959#1 152959#2 152959#3 -152821#2 -152821#1 -152821#0 152137#6 152137#7 -152139 152318#4 152309 152312#3 -152305 152960#5 152960#6 152960#7 152960#8 -153273#2 -153273#1 -152135#1 -152135#0 152802 152818#1 152818#2 152818#3 152389 152789#0 152789#1 152828 152797#1 -152797#1 -152828 -152789#1 -152789#0 152468 152296 153640 153639" >
        <stop busStop="131112" duration="30.00" until="45.0"/> <!-- Hector Otto -->
        <stop busStop="131049" duration="30.00" until="139.0"/> <!-- Villa Paloma -->
        <stop busStop="131137" duration="30.00" until="195.0"/> <!-- Rotondes -->
        <stop busStop="131070" duration="30.00" until="244.0"/> <!-- Moneghetti -->
        <stop busStop="131113" duration="30.00" until="301.0"/> <!-- Belgique -->
        <stop busStop="131204" duration="30.00" until="350.0"/> <!-- Belgique -->
        <stop busStop="131108" duration="30.00" until="408.0"/> <!-- Bosio -->
        <stop busStop="131200" duration="30.00" until="480.0"/> <!-- Parc Princesse Antoinette -->
        <stop busStop="131087" duration="30.00" until="555.0"/> <!-- Hopital -->
        <stop busStop="131118" duration="30.00" until="633.0"/> <!-- Athanee -->
        <stop busStop="131055" duration="30.00" until="711.0"/> <!-- Cimetiere -->
        <stop busStop="131116" duration="30.00" until="833.0"/> <!-- Place d'Armes (Charles III) -->
        <stop busStop="131119" duration="30.00" until="1012.0"/> <!-- Place d'Armes (Port) -->
        <stop busStop="131122" duration="30.00" until="1075.0"/> <!-- Princesse Stephanie -->
        <stop busStop="131089" duration="30.00" until="1266.0"/> <!-- Fontvieille - Centre Commercial -->
    </route>
    <route id="bus_5:Hopital" edges="152534#7 152535#0 152535#1 152535#2 152535#4 152535#6 152654#4 152670#3 152677#0 152677#1 152677#2 152677#3 152677#4 152677#5 -152657#2 -152657#1 -152657#0 152667#1 152667#2 152667#3 152714 152174#0 152174#1 -152701#5 -152701#4 -152701#3 -152701#2 -152701#1 -152701#0 152229 152943#0 152943#1 -152814#11 -152945#2 -152945#1 -152945#0 153552#1 153552#2 152870#0 152870#1 152870#2 152870#3 152870#4 152870#5 -152899#1 -152899#0 152402#0 152402#1 152402#2 152938#0 152938#1 152938#2 152419#1 152308 152318#3 152139 152137#0 152138 152968 152419#0 -152938#2 -152938#1 -152938#0 152402#3 152899#0 152899#1" >
        <stop busStop="131084" duration="30.00" until="45.0"/> <!-- Larvotto -->
        <stop busStop="131210" duration="30.00" until="109.0"/> <!-- Sea Club -->
        <stop busStop="131081" duration="30.00" until="170.0"/> <!-- Plages -->
        <stop busStop="131111" duration="30.00" until="231.0"/> <!-- Grimaldi Forum/Villa Sauber -->
        <stop busStop="131083" duration="30.00" until="288.0"/> <!-- Portier -->
        <stop busStop="131052" duration="30.00" until="357.0"/> <!-- Spelugues -->
        <stop busStop="131051" duration="30.00" until="416.0"/> <!-- Citronniers -->
        <stop busStop="131060" duration="30.00" until="468.0"/> <!-- Place du Casino -->
        <stop busStop="131058" duration="30.00" until="582.0"/> <!-- Monte-Carlo (Tourisme) -->
        <stop busStop="131091" duration="30.00" until="665.0"/> <!-- Cremaillere -->
        <stop busStop="131098" duration="30.00" until="743.0"/> <!-- Roqueville -->
        <stop busStop="131048" duration="30.00" until="822.0"/> <!-- Pont Sainte-Devote -->
        <stop busStop="131204" duration="30.00" until="893.0"/> <!-- Belgique -->
        <stop busStop="131108" duration="30.00" until="952.0"/> <!-- Bosio -->
        <stop busStop="131200" duration="30.00" until="1024.0"/> <!-- Parc Princesse Antoinette -->
        <stop busStop="131087" duration="30.00" until="1099.0"/> <!-- Hopital -->
        <stop busStop="131057" duration="30.00" until="1369.0"/> <!-- Athanee -->
        <stop busStop="131056" duration="30.00" until="1439.0"/> <!-- Hopital -->
    </route>