<?xml version="1.0" encoding="UTF-8"?>

<!-- generated on Thu Apr 26 16:59:13 2018 by Eclipse SUMO duarouter Version 1c6dcbf191
<configuration xmlns:xsi="http://www.w3.org/2001/XMLSchema-instance" xsi:noNamespaceSchemaLocation="http://sumo.dlr.de/xsd/duarouterConfiguration.xsd">

    <input>
        <net-file value="../scenario/in/most.net.xml"/>
        <additional-files value="../scenario/in/add/most.busstops.add.xml,../scenario/in/add/most.trainstops.add.xml,../scenario/in/add/most.parkings.add.xml,../scenario/in/add/basic.vType.xml"/>
        <route-files value="out/most.2wheeler.trips.xml"/>
    </input>

    <output>
        <output-file value="../scenario/in/route/most.2wheeler.rou.xml"/>
        <vtype-output value="/dev/null"/>
        <alternatives-output value="../scenario/in/route/most.2wheeler.rou.alt.xml"/>
    </output>

    <processing>
        <ignore-errors value="true"/>
        <max-alternatives value="5"/>
        <remove-loops value="false"/>
        <repair value="false"/>
        <repair.from value="false"/>
        <repair.to value="false"/>
        <routing-threads value="4"/>
        <routing-algorithm value="dijkstra"/>
    </processing>

    <time>
        <begin value="0"/>
        <end value="84600"/>
    </time>

</configuration>
-->

<routes xmlns:xsi="http://www.w3.org/2001/XMLSchema-instance" xsi:noNamespaceSchemaLocation="http://sumo.dlr.de/xsd/routes_file.xsd">
    <vehicle id="2wheeler_1_270" type="moped" depart="18012.00" departLane="best">
        <route edges="320 81 -185 710 184 716 183 677 182 179 261 -577 -703#2 -703#1 -703#0 857#1 857#2 857#3 736 879#1 879#2 879#3 879#4 879#5 879#6 879#7 879#8"/>
    </vehicle>
    <vehicle id="2wheeler_2_20" type="moped" depart="18012.00" departLane="best">
        <route edges="-1309#3 -1309#2 -1309#1 -1309#0 415#1 415#2 415#3 415#4 1309#0 1309#1 1309#2 1309#3 1309#4 1309#5 1309#6 1309#7 -1311#1 -1311#0 -1313#0 -1340#4 -1340#3 -1340#2 -1340#1 -1340#0 1351#1 1351#2 1351#3 1351#4 143#1 -1368#5 -1368#4 -1368#3 -1368#2 -1368#1 -1368#0 1372#2 1372#3 1372#4 752#0 752#1 -287 -752#2 -752#1 -752#0"/>
    </vehicle>
    <vehicle id="2wheeler_3_99" type="motorcycle" depart="18080.00" departLane="best">
        <route edges="-763 1384#4 1384#5 1384#6 928#6 303 1573#1 923#0 754 926#1 1578 223#0 223#1 223#2 223#3 223#4 223#5 223#6 223#7 223#8 223#9 223#10 295#1 295#2 818#0 818#1 908 730#0 730#1 730#2 730#3 730#4 730#5 730#6 730#7 730#8 730#9 730#10 730#11 675 735 863#2 617#0 683#0 683#1 683#2 683#3 632 580 -691#2 -588#2 -588#1 -564#0 -593#5 -593#4 -593#3 -593#2 -593#1 -593#0 586 569#1 569#2 439#0 439#2 439#4 439#6 439#7 439#9"/>
    </vehicle>
    <vehicle id="2wheeler_1_207" type="motorcycle" depart="18084.00" departLane="best">
        <route edges="-743#0 1484#0 864#0 864#1 864#2 730#11 675 735 863#2 617#0 617#1 617#2 617#3 617#4 617#5 619 621#0 621#2 594 447 561#0 561#1 561#2 1324#0 1324#1 1324#2 1324#3 1324#4 932#0 932#1 563#1 563#2 563#3 563#4 563#5"/>
    </vehicle>
    <vehicle id="2wheeler_2_1319" type="motorcycle" depart="18113.00" departLane="best">
        <route edges="626 627#3 617#4 617#5 619 620 582#1 582#2 582#3 582#4 582#5 582#6 582#7 582#8 582#9 582#10 582#11 519#1 519#2 519#3 351#1 -494#4 -494#3 -494#2 -494#1 -242 494#2 494#3 494#4"/>
    </vehicle>
    <vehicle id="2wheeler_2_981" type="motorcycle" depart="18134.00" departLane="best">
        <route edges="1332#8 924#1 1255 1365 -728#4 -728#3"/>
    </vehicle>
    <vehicle id="2wheeler_3_1725" type="motorcycle" depart="18189.00" departLane="best">
        <route edges="1265 -1264 -1269#0 911#1 456 -913 -1422 -1285#2 -1282#2 -1282#1 -1282#0 -1287#1 -1287#0 851#3 851#0 851#1 -1244#4 -1244#3 -1244#2 -1244#1 -1244#0 -1293#4 -1293#3 -1293#2 -467#1 -467#0 1487 -368#0 889#1 489#2 489#3 489#4 23 1303#1 1303#2 355#0 355#1 356 244#1 -354#2 -354#1 -354#0 354#2"/>
    </vehicle>
    <vehicle id="2wheeler_2_514" type="motorcycle" depart="18244.00" departLane="best">
        <route edges="1413#1 1413#2 1413#3 1413#4 415#2 415#3 415#4 1309#0 1309#1 1309#2 1309#3 1309#4 1309#5 1309#6 1309#7 -1311#1 -1311#0 -1313#0 -1250#5 -1250#4 -1252#11 -1252#10 -1252#9 -1252#8 -1252#7 -1252#6 -1252#5 -1252#4 -1252#2 -1252#1 -1252#0 -1343#1 -1343#0 1341#14 1341#15 1341#16 918 920 622#0 622#1 622#2 622#3 -617#2 -617#1 -617#0 111 862#0 709 701#2 888#0 888#1 888#2 888#3 888#4 888#5 907#0 907#1 748#0 748#1 748#2 748#3 739#0"/>
    </vehicle>
    <vehicle id="2wheeler_2_1366" type="motorcycle" depart="18289.00" departLane="best">
        <route edges="1342#2 597 563#3 563#4 563#5 1334#0 1334#1 1334#2 859 600 630#3 -617#5 -617#4 -617#3 -617#2 -617#1 -617#0 111 862#0 709 701#2 888#0 888#1 1480#0 1480#1 1480#2 1480#3 741#0 741#1 879#11 878#1 878#2 878#3 -733#3 -733#2 -733#1 -733#0 -692 679 -688 -689 690 -676 -679"/>
    </vehicle>
    <vehicle id="2wheeler_1_1076" type="motorcycle" depart="18305.00" departLane="best">
        <route edges="353#1 -352 884#1 -529#1 -529#0 351#3 351#4 -350 -519#2 -519#1 -519#0 -582#10 -582#9 -582#8 -582#7 -582#6 -582#5 -582#4 630#1 630#2 630#3 -617#5 -617#4 -617#3 -617#2 -617#1 -617#0 111 862#0 709 701#2 888#0 -707#1"/>
        <stop parkingArea="152477" duration="43200.00"/>
    </vehicle>
    <vehicle id="2wheeler_GW2_339" type="moped" depart="18306.00" departLane="best">
        <route edges="1593 175 -465 -1285#2 -1282#2 -1282#1 -1282#0 -1287#1 -1287#0 851#3 851#0 -468#6 -468#5 -468#3 -468#2 -468#1 -468#0 1300#1 1408#0 1408#1 1408#2 1408#3 1408#4 1408#5 1408#6 1408#7 497#1 243 494#0 494#1 494#2 494#3 494#4 351#2 351#3 351#4 -350 -519#2 -519#1 -519#0 -582#10 -582#9 -582#8 -582#7 -582#6 -582#5 -582#4 630#1 630#2 630#3 -617#5 -617#4 -617#3 -622#3 -622#2 -622#1 -622#0 -920 -918 -1341#16 -1341#15 -1341#14 -1341#13 -1341#12"/>
    </vehicle>
    <vehicle id="2wheeler_2_1646" type="motorcycle" depart="18313.00" departLane="best">
        <route edges="-1282#0 -1287#1 -1287#0 851#3 851#0 -468#6 -468#5 -468#3 -468#2 -468#1 -468#0 1300#1 1408#0 1408#1 1408#2 1408#3 1408#4 1408#5 1408#6 1408#7 497#1 243 494#0 494#1 494#2 494#3 494#4 351#2 351#3 520#0 -524#1 531 520#2 520#3 520#4 520#5 520#6 520#7 520#8 520#9 416#1 247#4 247#1 -562#6 1326#0 1326#1 1326#2 1326#3 1324#4 932#0 932#1"/>
    </vehicle>
    <vehicle id="2wheeler_1_604" type="motorcycle" depart="18325.00" departLane="best">
        <route edges="-519#0 -582#10 -582#9 -582#8 -582#7 -582#6 -582#5 -582#4 -582#3 -582#2 -582#1 618#0 618#1 -691#5 -691#4 -691#3 -691#2 -691#0 726#0 726#1 726#2 857#2 857#3 736 879#1 879#2 879#3 879#4 197 205#0 205#1 205#2 -202 211#1 210 -815#2 -815#1 -815#0 894 804#1 804#2 817#1 902#4 902#0 902#1 902#2 -903 790#0 790#1 790#2 293#0 293#1 -293#4"/>
    </vehicle>
    <vehicle id="2wheeler_GW1_216" type="motorcycle" depart="18355.00" departLane="best">
        <route edges="1406 196 844 1405#1 194 1263 195 -1404#27 -1404#26 -1404#25 -1404#24 -1404#23 -1404#21 -1404#20 -1404#19 -1404#18 -1404#17 -1404#16 -1404#13 -1404#12 -1404#11 -1404#10 -1404#9 -1404#8 -1404#7 -1404#6 -1404#5 -1404#3 -1404#2 -1404#1 -1404#0 315 162 316#0 316#1 201 211#3 17 15#0 15#1 15#2 15#3 15#4 15#5 737#0 -725 740#1"/>
        <stop parkingArea="152438" duration="43200.00"/>
    </vehicle>
    <vehicle id="2wheeler_3_2014" type="motorcycle" depart="18388.00" departLane="best">
        <route edges="456 -913 -1422 -1285#2 -1282#2 -1282#1 -1282#0 -1287#1 -1287#0 851#3 851#0 -468#6 -468#5 -468#3 -468#2 -468#1 -468#0 1300#1 1408#0 1408#1 1408#2 1408#3 1408#4 1408#5 1408#6 1408#7 497#1 243 494#0 494#1 494#2 494#3 494#4 351#2 351#3 351#4 -350 -519#2 -519#1 -519#0 -582#10 -582#9 -582#8 -582#7 -582#6 -582#5 -582#4 -582#3 -582#2 -582#1 618#0 618#1 -691#5 -691#4 -691#3 -691#2 -691#0 726#0 726#1 726#2 857#2 857#3 736 879#1 879#2 879#3 879#4 879#5 879#6 879#7 879#8 879#9 879#11 878#1 878#2 878#3 -733#3 -733#2 -733#1 -733#0 -692 679 -688 -689 690 -676 -679 692 733#0 733#1 733#2"/>
    </vehicle>
    <vehicle id="2wheeler_2_1240" type="motorcycle" depart="18410.00" departLane="best">
        <route edges="-1248#0 1494#2 1320 1315#1 1315#2 -542#1 -542#0 -1312#5 -1312#4 -1312#3 -1312#2 -1312#1 -1312#0 -1311#0 -1313#0 -1250#5 -1250#4 -1252#11 -1252#10 -1252#9 -1252#8 -1252#7 -1252#6 -1252#5 -1252#4 -1252#2 -1252#1 -1252#0 -1343#1 -1343#0 1341#14 1341#15 1341#16 918 920 622#0 622#1 622#2 622#3 617#3 617#4 617#5 619 620 582#1 582#2 582#3 -583#2"/>
    </vehicle>
    <vehicle id="2wheeler_2_1744" type="motorcycle" depart="18416.00" departLane="best">
        <route edges="-728#1 -728#0 -1369#0 -1373#1 -1373#0 -1332#8 -1332#7 -1332#6 -1332#5 -1332#4 -1332#3 -1332#2 -1332#1 -1332#0 -623#0 622#2 622#3 617#3 617#4 617#5 619 620 572#0 572#1 572#2 -593#5 583#0 583#1 -579#6 -579#5 -579#4 -579#3 -579#2 -579#1 -579#0 257#1 257#2 -521#1"/>
    </vehicle>
    <vehicle id="2wheeler_1_934" type="motorcycle" depart="18430.00" departLane="best">
        <route edges="701#1 701#2 888#0 -743#1 -743#0 1484#0 1484#1 -698 -717 -730#8 -730#7 -730#6 -730#5 -730#4 -730#3 -730#2 813 730#1 730#2 730#3 730#4 730#5"/>
    </vehicle>
    <vehicle id="2wheeler_GW1_351" type="motorcycle" depart="18466.00" departLane="best">
        <route edges="420 164 422 431 469 415#3 415#4 1309#0 1309#1 1309#2 1309#3 1309#4 1309#5 1309#6 1309#7 1311#2 1311#3 1311#4 1297#0 1297#1 199#0 199#1 -1300#4 -1300#3 -1300#2 1408#0 1408#1 1408#2 1408#3 1408#4 1408#5 1408#6 1408#7 97 -1306#2 -1306#1 -1306#0 1303#0 1303#1 1303#2 355#0 355#1 355#2 360#1 360#2 360#3 360#4"/>
    </vehicle>
    <vehicle id="2wheeler_2_182" type="moped" depart="18484.00" departLane="best">
        <route edges="100 239#1 103 497#1 243 494#0 494#1 494#2 494#3 494#4 351#2 351#3 351#4 -350 -519#2 -519#1 -519#0 -582#10 -582#9 -582#8 -582#7 -582#6 -582#5 -582#4 -582#3 -582#2 -582#1 618#0 618#1 -691#5 -691#4 -691#3 -691#2 -691#0 726#0 726#1 726#2 857#2 857#3 736 879#1 879#2 879#3 879#4 879#5 879#6 879#7 879#8 879#9 879#11 878#1 878#2 -737#2 -737#0 15#6 15#7 15#0 15#1 15#2 -773 191 -815#2 -815#1 -815#0 894 804#1 804#2 817#1 902#4 902#0 902#1 902#2 -903 790#0 790#1 790#2 293#0 293#1 -293#4 -293#3 -291"/>
        <stop parkingArea="152465" duration="43200.00"/>
    </vehicle>
    <vehicle id="2wheeler_2_1387" type="moped" depart="18555.00" departLane="best">
        <route edges="-336 -1296#3 -1296#1 -1296#0 476#1 1302#1 1302#2 1302#3 1302#4 1302#5 1302#6 1302#7 1302#8 1302#9 1302#10 1302#11 1302#12 1302#13 1302#14 850#1 850#2 850#3 -1327#1 -1327#0 563#0 563#1 563#2 563#3 563#4 563#5 1334#0 1334#1 1334#2 859 600 630#3 -617#5 -617#4 -617#3 -622#3 -624#1 -624#0 890#1 890#2 890#3 890#4"/>
    </vehicle>
    <vehicle id="2wheeler_GW1_558" type="motorcycle" depart="18570.00" departLane="best">
        <route edges="420 164 422 431 469 415#3 415#4 1309#0 1309#1 1309#2 1309#3 1309#4 1309#5 1309#6 1309#7 -1311#1 -1311#0 -1313#0 -1250#5 -1250#4 -1252#11 -1252#10 -1252#9 -1252#8 -1252#7 -1252#6 -1252#5 -1252#4 -1252#2 -1252#1 -1252#0 -1343#1 -1343#0 1341#14 1341#15 1341#16 918 920 622#0 622#1 622#2 622#3 -617#2 -617#1 -617#0 111 862#0 709 701#2 888#0 888#1 1480#0 1480#1 1480#2 1480#3 741#0 741#1 879#11 878#1 878#2 878#3 -733#3 -733#2 -733#1 -733#0 -692 777 779 778 -806 802 801 798 799 861 794 786 780 785 853"/>
    </vehicle>
    <vehicle id="2wheeler_2_1660" type="motorcycle" depart="18593.00" departLane="best">
        <route edges="902#1 902#2 902#3 -817#1 -804#2 -804#1 -804#0 815#0 815#1 815#2 -191 773 15#3 15#4 15#5 737#0 737#2 878#3 878#4 695 734#0 734#1 734#2 734#3 284#0"/>
    </vehicle>
    <vehicle id="2wheeler_1_689" type="motorcycle" depart="18596.00" departLane="best">
        <route edges="360#2 360#3 360#4 360#5 360#0 360#1 440#0 440#2 440#3 440#6 440#8 569#4 585#3 1481 593#0 593#1 593#2 593#3 593#4 593#5 -564#2 -564#1 -564#0 -593#5 -593#4 -593#3 -593#2"/>
    </vehicle>
    <vehicle id="2wheeler_2_1412" type="motorcycle" depart="18599.00" departLane="best">
        <route edges="313#1 309 341#1 -1363#3 -1363#2 -1363#1 -1363#0 1379#6 1379#7 1361#1 650#0 -652#2 -652#1 -652#0 1319#0 1319#1 1494#0 1494#1 1248#0 1248#1 1248#2 1248#3 1248#4 1248#5 1248#6 1248#7 1248#8 1248#9 1248#10 1248#11 1248#12 -1256#7 -1256#6 -1256#5 -1256#4 -1256#3 -1256#2 -1256#1 -1256#0 -1372#0 -1369#3 -1369#2 -1369#1 1371 728#1 728#2 728#3 728#4 728#5 730#8 717 698 1484#2 787#0 787#1 787#2 787#3 -748#6 -748#5 -748#4 -748#3 -748#2 -748#1 -748#0 -907#1 -907#0"/>
    </vehicle>
    <vehicle id="2wheeler_2_616" type="motorcycle" depart="18618.00" departLane="best">
        <route edges="1296#4 -1300#2 1408#0 1408#1 1408#2 1408#3 1408#4 1408#5 1408#6 1408#7 497#1 243 494#0 494#1 494#2 494#3 494#4 351#2 351#3 351#4 -350 -519#2 -519#1 -519#0 -582#10 -582#9 -582#8 -582#7 -582#6 -582#5 -582#4 -582#3 -582#2 -582#1 618#0 618#1 -691#5 -691#4 -691#3 -691#2 -691#0 726#0 726#1 726#2 857#2 857#3 736 879#1 879#2 879#3 879#4 879#5 879#6 879#7 879#8 879#9 879#11 878#1 878#2 878#3 -733#3 -733#2 -733#1 -733#0 -692 679 -688 -689 690 715 719 -722 -704 -785 -780 -786 -794 -797 -799 -798 -801 -802 806"/>
    </vehicle>
    <vehicle id="2wheeler_3_251" type="motorcycle" depart="18618.00" departLane="best">
        <route edges="762 -770#0 1384#6 928#6 303 1573#1 923#0 754 926#1 1578 223#0 223#1 223#2 223#3 223#4 223#5 223#6 223#7 223#8 223#9 223#10 295#1 295#2 818#0 818#1 908 730#0 730#1 730#2 730#3 730#4 730#5 730#6 730#7 730#8 730#9 730#10 730#11 675 735 863#2 617#0 683#0 683#1 683#2 683#3 632 580 -691#2 -588#2 -588#1 -564#0 -593#5 -593#4 -593#3 -593#2 -593#1 -593#0 586 261"/>
    </vehicle>
    <vehicle id="2wheeler_1_1183" type="moped" depart="18626.00" departLane="best">
        <route edges="-317 -703#1 -703#0 857#1 857#2 857#3 736 879#1 879#2 879#3 879#4 879#5 879#6 879#7 879#8 879#9 -741#1 -741#0 -1480#3 -1480#2 -1480#1 -1480#0 888#2 888#3 888#4 888#5 907#0 907#1 748#0 748#1 748#2 748#3 739#0 739#1"/>
    </vehicle>
    <vehicle id="2wheeler_2_344" type="motorcycle" depart="18629.00" departLane="best">
        <route edges="-1404#23 -1404#21 -1404#20 -1404#19 -1404#18 -1404#17 -1404#16 -1404#13 -1404#12 -1404#11 -1404#10 -1404#9 -1404#8 -1404#7 -1404#6 -1404#5 -1404#3 -1404#2 -1404#1 -1404#0 315 162 316#0 316#1 201 211#3 211#4 202 205#3 -197 879#5 879#6 879#7 879#8 879#9 -741#1 -741#0 -1480#3 -1480#2 -1480#1 -1480#0 888#2 888#3 888#4"/>
    </vehicle>
    <vehicle id="2wheeler_1_1067" type="motorcycle" depart="18639.00" departLane="best">
        <route edges="-715 -690 689 688 -679 692 733#0 733#1 733#2 733#3 878#4 878#0 878#1 878#2 -737#2 -737#0 15#6 15#7 -17 211#4 202 205#3 -197 879#5 879#6 879#7 879#8 879#9 -741#1 -741#0 -1480#3 -1480#2 -1480#1 -1480#0 888#2 888#3 888#4 888#5 907#0 907#1 748#0 748#1 748#2 748#3 739#0 739#1 739#2 739#3 708#0 708#1 -748#0 -907#1 -907#0 -888#5 -888#4 -888#3 -888#2"/>
    </vehicle>
    <vehicle id="2wheeler_3_224" type="motorcycle" depart="18645.00" departLane="best">
        <route edges="911#1 456 -913 -1422 -1285#2 -1282#2 -1282#1 -1282#0 -1287#1 -1287#0 851#3 851#0 -468#6 -468#5 -468#3 -468#2 -468#1 -468#0 1300#1 1408#0 1408#1 1408#2 1408#3 1408#4 1408#5 1408#6 1408#7 497#1 243 494#0 494#1 494#2 494#3 494#4 351#2 351#3 351#4 -350 -519#2 -519#1 -519#0 -582#10 -582#9 -582#8 -582#7 -582#6 -582#5 -582#4 -582#3 -582#2 -582#1 618#0 618#1 -691#5 -691#4 -691#3 -691#2 -691#0 726#0 726#1 726#2 857#2 857#3 736 879#1 879#2 879#3 879#4 197 205#0 205#1 205#2 -202 211#1 210 -815#2 -815#1 -815#0 1492"/>
    </vehicle>
    <vehicle id="2wheeler_2_1235" type="motorcycle" depart="18650.00" departLane="best">
        <route edges="-1404#18 -1404#17 -1404#16 -1404#13 -1404#12 -1404#11 -1404#10 -1404#9 -1404#8 -1404#7 -1404#6 -1404#5 -1404#3 -1404#2 -1404#1 -1404#0 10 296"/>
    </vehicle>
    <vehicle id="2wheeler_GW2_349" type="motorcycle" depart="18650.00" departLane="best">
        <route edges="1593 175 -465 -1285#2 -1282#2 -1282#1 -1282#0 -1287#1 -1287#0 851#3 851#0 -468#6 -468#5 -468#3 -468#2 -468#1 -468#0 1300#1 1300#2 1300#3 1300#4 -199#1 -199#0 -475 476#0 476#1 1302#1 1302#2 1302#3 1302#4 1302#5 1302#6 1302#7 1302#8 1302#9 1302#10 1302#11 1302#12 1302#13 1302#14 850#1 850#2 850#3 -1327#1 -1327#0 1341#0 1341#1 1341#3 1341#4 1341#5 1341#6 1341#7 1341#8 1341#9 1341#10 1341#11 1341#12 1341#13 1341#14 1341#15"/>
    </vehicle>
    <vehicle id="2wheeler_3_1671" type="motorcycle" depart="18666.00" departLane="best">
        <route edges="-1274 911#1 456 -913 -1422 -1285#2 -1282#2 -1282#1 -1282#0 -1287#1 -1287#0 851#3 851#0 -468#6 -468#5 -468#3 -468#2 -468#1 -468#0 1300#1 1408#0 1408#1 1408#2 1408#3 1408#4 1408#5 1408#6 1408#7 497#1 243 494#0 494#1 494#2 494#3 494#4 351#2 351#3 351#4 -350 -519#2 -519#1 -519#0 -582#10 -582#9 -582#8 -582#7 -582#6 -582#5 -582#4 -583#2 -583#1 -583#0 593#5 564#0 588#1 867#0 867#1"/>
    </vehicle>
    <vehicle id="2wheeler_1_1196" type="motorcycle" depart="18707.00" departLane="best">
        <route edges="-817#0 895#3 895#4 895#1 -1492 815#0 815#1 815#2 -191 773 15#3 15#4 15#5 15#6 15#7 -17 211#4 202 205#3 -197 879#5 879#6 879#7 879#8 879#9 -741#1 -741#0 -1480#3 -1480#2 -1480#1 -1480#0 -888#1 -743#1 -743#0 1484#0 864#0 864#1 864#2 730#11"/>
    </vehicle>
    <vehicle id="2wheeler_1_868" type="motorcycle" depart="18719.00" departLane="best">
        <route edges="-1341#15 -1341#14 -1341#13 -1341#12 -1341#11 -1341#10 -1341#9 -1341#8 -1341#7 -1341#6 -1341#5 -1341#4 -1341#3 -1341#1 -1341#0 563#0 563#1 563#2 563#3 563#4 563#5 1334#0 1334#1 1334#2 859 600 630#3 -617#5 -617#4 -617#3 -617#2 -617#1 -617#0 111 862#0 709 701#2 888#0 888#1 1480#0 1480#1 1480#2 1480#3 741#0 741#1 879#11 878#1 878#2 878#3 -733#3"/>
    </vehicle>
    <vehicle id="2wheeler_3_174" type="motorcycle" depart="18802.00" departLane="best">
        <route edges="883 -441 -180 218#0 307 436 221#1 180 771 290 1578 223#0 223#1 223#2 223#3 223#4 223#5 223#6 223#7 223#8 -927#3 -927#2 -927#1 -927#0 -816#1 -816#0 298#0 298#1 298#2 856#0 856#1 856#2 316#1 201 211#3 17 15#0 15#1 15#2 15#3 15#4 15#5 737#0 737#2 878#3 878#4 695 734#0 734#1 734#2 734#3 734#4 285 371 188 1577"/>
    </vehicle>
    <vehicle id="2wheeler_2_1776" type="motorcycle" depart="18824.00" departLane="best">
        <route edges="-1414 1315#2 -542#1 -542#0 -1312#5 -1312#4 -1312#3 -1312#2 -1312#1 -1312#0 -1311#0 -1313#0 -1250#5 -1250#4 -1252#11 -1252#10 -1252#9 -1252#8 -1252#7 -1252#6 -1252#5 -1252#4 -1252#2 -1252#1 -1252#0 -1343#1 -1343#0 1341#14 1341#15 1341#16 918 920 622#0 622#1 622#2 622#3 -617#2 -617#1 -617#0 111 862#0 709 701#2 888#0 -743#1"/>
    </vehicle>
    <vehicle id="2wheeler_2_433" type="motorcycle" depart="18825.00" departLane="best">
        <route edges="1407#6 1407#7 1407#8 1407#9 1407#11 223#3 223#4 223#5 223#6 223#7 223#8 223#9 223#10 295#1 295#2 818#0 818#1 908 730#0 730#1 730#2 730#3 730#4 730#5 730#6 730#7 730#8 730#9 730#10 730#11 675 735 863#2 617#0 617#1 617#2 617#3 617#4 617#5 619 621#0 621#2 594 447 561#0 562#0 562#1 562#2 562#3 562#4 562#5"/>
    </vehicle>
    <vehicle id="2wheeler_GW1_347" type="motorcycle" depart="18834.00" departLane="best">
        <route edges="420 164 422 431 469 415#3 415#4 1309#0 1309#1 1309#2 1309#3 1309#4 1309#5 1309#6 1309#7 1311#2 1311#3 1311#4 1297#0 1297#1 199#0 199#1 -1300#4 -1300#3 -1300#2 1408#0 1408#1 1408#2 1408#3 1408#4 1408#5 1408#6 1408#7 497#1 243 494#0 494#1 494#2 494#3 494#4 351#2 351#3 520#0 -524#1"/>
    </vehicle>
    <vehicle id="2wheeler_GW2_581" type="moped" depart="18840.00" departLane="best">
        <route edges="1380#0 1380#1 1380#2 1379#1 1379#2 1379#3 1379#4 1379#5 1379#6 1379#7 1361#1 650#0 -652#2 -652#1 -652#0 1319#0 1319#1 1494#0 1494#1 1248#0 1248#1 1248#2 1248#3 1248#4 1248#5 1248#6 1248#7 1248#8 1248#9 1248#10 1248#11 1248#12 -1256#7 -1256#6 -1256#5 -1256#4 -1256#3 -1256#2 -1256#1 -1256#0 -1372#0 -1369#3 -1369#2 -1369#1 1371 728#1 728#2 728#3 728#4 728#5 730#8 717 698 1484#2 1484#3 743#0 743#1 888#1 1480#0 1480#1 1480#2 1480#3 741#0 741#1 879#11 878#1 878#2 878#3 -733#3 -733#2 -733#1 -733#0 -692 777"/>
    </vehicle>
    <vehicle id="2wheeler_3_1616" type="motorcycle" depart="18851.00" departLane="best">
        <route edges="-928#6 -1384#6 -1384#5 -1384#4 -1384#3 -1384#2 -1384#1 -1384#0 1379#5 1379#6 1379#7 1361#1 650#0 -652#2 -652#1 -652#0 1319#0 1319#1 1494#0 1494#1 1248#0 1248#1 1248#2 1248#3 1248#4 1248#5 1248#6 1248#7 1248#8 1248#9 1248#10 1248#11 1248#12 -1256#7 -1256#6 -1256#5 -1256#4 -1256#3 -1256#2 -1256#1 -1256#0 -1372#0 -1369#3 -1369#2 -1369#1 1371 728#1 728#2 728#3 728#4 728#5 730#8 717 698 1484#2 1484#3 1484#0 1484#1"/>
    </vehicle>
    <vehicle id="2wheeler_1_504" type="motorcycle" depart="18894.00" departLane="best">
        <route edges="683#0 683#1 -696 -617#2 -617#1 -617#0 111 862#0 709"/>
    </vehicle>
    <vehicle id="2wheeler_3_1618" type="motorcycle" depart="18910.00" departLane="best">
        <route edges="434 172 437 221#1 180 771 290 1578 223#0 223#1 223#2 223#3 223#4 223#5 223#6 223#7 223#8 -927#3 -927#2 -927#1 -927#0 -816#1 -816#0 298#0 298#1 298#2 856#0 856#1 856#2 316#1 201 211#3 17 15#0 15#1 15#2 15#3 15#4 15#5 737#0 737#2 878#3 -733#3 -733#2 -733#1 -733#0 -692 679 -688 -689 690 715 719 -722 -704 -785 -780 -786"/>
    </vehicle>
    <vehicle id="2wheeler_GW1_28" type="moped" depart="18923.00" departLane="best">
        <route edges="1406 196 844 1405#1 194 1263 195 -1404#27 -1404#26 -1404#25 -1404#24 -1404#23 -1404#21 -1404#20 -1404#19 -1404#18 -1404#17 -1404#16 -1404#13 -1404#12 -1404#11 -1404#10 -1404#9 -1404#8 -1404#7 -1404#6 -1404#5 -1404#3 -1404#2 -1404#1 -1404#0 315 162 316#0 316#1 201 211#3 211#4 202 205#3 -197 -747#2 -747#1 -747#0 732#4 732#5 857#0 857#1 -726#2 -726#1 -726#0 691#0 691#2 691#3 691#4 691#5 -618#1 -618#0 582#1 582#2 582#3 630#1 621#2 594 447 561#0"/>
    </vehicle>
    <vehicle id="2wheeler_3_1296" type="motorcycle" depart="18928.00" departLane="best">
        <route edges="-1415 -1275#1 -1275#0 130 1279 1288#0 1288#1 1247#1 1247#2 1247#3 1247#4 1300#1 1408#0 1408#1 1408#2 1408#3 1408#4 1408#5 1408#6 1408#7 497#1 243 494#0 494#1 494#2 494#3 494#4 351#2 351#3 351#4 -350 -519#2 -519#1 -519#0 -582#10 -582#9 -582#8 -582#7 -582#6 -582#5 -582#4 630#1 630#2 630#3 -617#5 -617#4 -617#3 -617#2 -617#1 -617#0 111 862#0 709 701#2 888#0 888#1 888#2 888#3 888#4 888#5 907#0 907#1 748#0 748#1 748#2"/>
    </vehicle>
    <vehicle id="2wheeler_2_1019" type="motorcycle" depart="18949.00" departLane="best">
        <route edges="247#2 247#3 247#4 247#1 -562#6 -562#5 -562#4 -562#3 -562#2 -562#1 -562#0 561#1 561#2 1333#0 1333#1 1333#2 1333#3 1334#0 1334#1 1334#2 859 600 630#3 -617#5 -617#4 -617#3 -617#2 -617#1 -617#0 111 862#0 862#1 -730#11 -730#10 -730#9 -730#8 -730#7 -730#6 -730#5 -730#4 -730#3"/>
    </vehicle>
    <vehicle id="2wheeler_2_151" type="motorcycle" depart="18967.00" departLane="best">
        <route edges="-374#0 -830#1 -830#0 -1407#3 -1407#2 -1407#1 -1407#0 -1404#26 -1404#25 -1404#24 -1404#23 -1404#21 -1404#20 -1404#19 -1404#18 -1404#17 -1404#16 -1404#13 -1404#12 -1404#11 -1404#10 -1404#9 -1404#8 -1404#7 -1404#6 -1404#5 -1404#3 -1404#2 -1404#1 -1404#0 315 162 316#0 316#1 201 211#3 211#4 202 205#3 -197 -747#2 -747#1 -747#0 732#4 732#5 857#0 857#1 -726#2 -726#1 -726#0 691#0 691#2 691#3 691#4 691#5 -618#1 -618#0 582#1 582#2 582#3 630#1 621#2 594 447 561#0 561#1 561#2 1324#0 1324#1 1324#2 1324#3 1324#4 932#0 932#1"/>
    </vehicle>
    <vehicle id="2wheeler_2_1510" type="motorcycle" depart="18999.00" departLane="best">
        <route edges="933#1 1290#0 1288#0 1288#1 1247#1 1247#2 1247#3 1247#4 1300#1 1408#0 1408#1 1408#2 1408#3 1408#4 1408#5 1408#6 1408#7 97 -1306#2 -1306#1 -1306#0 238#0 238#1 -491#1 -491#0 -499#2 -499#1 -499#0 521#1 257#3 257#0 257#1 -584#1 585#0 585#1 585#2 585#3 569#0 569#1 569#2 569#3 569#4"/>
    </vehicle>
    <vehicle id="2wheeler_1_566" type="motorcycle" depart="19032.00" departLane="best">
        <route edges="362 204 205#2 205#3 205#0 163 320"/>
    </vehicle>
    <vehicle id="2wheeler_2_1219" type="motorcycle" depart="19040.00" departLane="best">
        <route edges="1419#3 1419#4 1419#5 1315#0 1315#1 1315#2 -542#1 -542#0 -1312#5 -1312#4 -1312#3 -1312#2 -1312#1 -1312#0 -1311#0 -1313#0 -1250#5 -1250#4 -1252#11 -1252#10 -1252#9 -1252#8 -1252#7 -1252#6 -1252#5 -1252#4 -1252#2 -1252#1 -1252#0 -1343#1 -1343#0 1341#14 1341#15 1341#16 918 920 622#0 622#1 622#2 622#3 -617#2 -617#1 -617#0 111 862#0 709 701#2 888#0 888#1 1480#0 1480#1 1480#2 1480#3 741#0 741#1 879#11 878#1 878#2 -737#2 -737#0 15#6 15#7 15#0 15#1 15#2 -773 191 -815#2 -815#1 -815#0 1492 895#2 895#3 803#0 885#0 885#1 358#1 358#2 358#3 358#0 -885#1"/>
    </vehicle>
    <vehicle id="2wheeler_3_2390" type="motorcycle" depart="19064.00" departLane="best">
        <route edges="302 303 1573#1 923#0 754 926#1 1578 223#0 223#1 223#2 223#3 223#4 223#5 223#6 223#7 223#8 223#9 223#10 295#1 295#2 818#0 818#1 908 730#0 730#1 730#2 730#3 730#4 730#5 730#6 730#7 730#8 730#9 730#10 730#11 675 735 863#2 617#0 617#1 617#2 -622#3 -622#2 631 627#0 627#1 627#2"/>
    </vehicle>
    <vehicle id="2wheeler_1_343" type="motorcycle" depart="19077.00" departLane="best">
        <route edges="728#4 728#5 730#8 730#9 730#10 730#11 675 735 863#2 617#0 617#1 617#2 617#3 617#4 617#5 619 620 582#1 582#2 582#3 582#4 582#5 582#6 582#7 582#8 582#9 582#10 582#11 519#1 519#2 514"/>
    </vehicle>
    <vehicle id="2wheeler_2_643" type="moped" depart="19089.00" departLane="best">
        <route edges="951 954#1 954#2 -905 -636#1 -636#0 -1351#3 1338#0 1338#1 1338#2 1338#3 1338#4 1338#5 1338#6 1338#7 1338#8 1338#9 -1252#2 -1252#1 -1252#0 -1343#1 -1343#0 1341#14 1341#15 1341#16 918 920 622#0 622#1 622#2 622#3 696 683#2 -455 -858#2 -858#1 -858#0 726#1 726#2 857#2 857#3 736 879#1 721#0 -747#1 282#1"/>
    </vehicle>
    <vehicle id="2wheeler_1_443" type="motorcycle" depart="19112.00" departLane="best">
        <route edges="1341#12 1341#13 1341#14 1341#15 1341#16 1488 -1486#2 -1486#1 -1486#0 1332#1 1332#2 1332#3 1332#4 1332#5 1332#6 1332#7 1332#8 1373#0 1373#1 1369#0 1369#1 1374 746#1 746#2"/>
    </vehicle>
    <vehicle id="2wheeler_1_87" type="motorcycle" depart="19122.00" departLane="best">
        <route edges="184 716 183 677 182 179 569#1 569#2 569#3 569#4 585#3 585#4 174 -182 -677 -183 -716 -184 -710 185 281 362 204 205#2 205#3 -197 879#5 879#6 879#7 879#8 879#9 -741#1 -741#0 -1480#3 -1480#2 -1480#1 -1480#0"/>
    </vehicle>
    <vehicle id="2wheeler_2_1135" type="motorcycle" depart="19149.00" departLane="best">
        <route edges="-1390#5 -1390#4 -1390#3 -1390#2 -1390#1 -1390#0 -1404#13 -1404#12 -1404#11 -1404#10 -1404#9 -1404#8 -1404#7 -1404#6 -1404#5 -1404#3 -1404#2 -1404#1 -1404#0 315 162 316#0 316#1 201 211#3 211#4 202 205#3 -197 -747#2 -747#1 -747#0 732#4 732#5 857#0 857#1 -726#2 -726#1 -720 858#1 858#2 455 -683#2"/>
    </vehicle>
    <vehicle id="2wheeler_2_1367" type="motorcycle" depart="19152.00" departLane="best">
        <route edges="-223#0 1574 1571#1 1573#1 923#0 754 926#1 1578 223#0 223#1 223#2 223#3 223#4 223#5 223#6 223#7 223#8 223#9 223#10 295#1 295#2 295#3 -808#1 -808#0 192 -809#1 -809#0 752#0"/>
    </vehicle>
    <vehicle id="2wheeler_3_328" type="moped" depart="19170.00" departLane="best">
        <route edges="923#1 -1386#1 820 1405#1 194 1263 195 -1404#27 -1404#26 -1404#25 -1404#24 -1404#23 -1404#21 -1404#20 -1404#19 -1404#18 -1404#17 -1404#16 -1404#13 -1404#12 -1404#11 -1404#10 -1404#9 -1404#8 -1404#7 -1404#6 -1404#5 -1404#3 -1404#2 -1404#1 -1404#0 315 162 316#0 316#1 201 211#3 211#4 202 205#3 205#0 163 320 81 -185 710 184 716 183 677 182 179 569#1 569#2 569#3 569#4 585#3 585#4 174"/>
    </vehicle>
    <vehicle id="2wheeler_1_634" type="motorcycle" depart="19175.00" departLane="best">
        <route edges="15#3 15#4 15#5 15#6 15#7 -17 211#4 202 205#3 205#0 163 320 81 -185 710 184 716 183 677 182 179 569#1 569#2 439#0 -573#1 -573#0"/>
    </vehicle>
    <vehicle id="2wheeler_3_1749" type="moped" depart="19184.00" departLane="best">
        <route edges="-1384#6 -1384#5 -1384#4 -1384#3 -1384#2 -1384#1 -1384#0 1379#5 1379#6 1379#7 1361#1 650#0 -652#2 -652#1 -652#0 1319#0 1319#1 1494#0 1494#1 1248#0 1248#1 1248#2 1248#3 1248#4 1248#5 1248#6 1248#7 1248#8 1248#9 1248#10 1248#11 1248#12 -1256#7 -1256#6 -1256#5 -1256#4 -1256#3 -1256#2 -1256#1 -1256#0 1372#2 1372#3 1372#4 752#0 752#1 752#2 752#3 752#4 752#5 752#6 -730#2 -730#1 -730#0"/>
    </vehicle>
    <vehicle id="2wheeler_2_602" type="motorcycle" depart="19196.00" departLane="best">
        <route edges="422 431 469 415#3 415#4 1309#0 1309#1 1309#2 1309#3 1309#4 1309#5 1309#6 1309#7 -1311#1 -1311#0 -1313#0 -1250#5 -1250#4 -1252#11 -1252#10 -1252#9 -1252#8 -1252#7 -1252#6 -1252#5 -1252#4 -1252#2 -1252#1 -1252#0 -1343#1 -1343#0 1341#14 1341#15 1341#16 918 920 622#0 622#1 622#2 622#3 696 683#2 -455 -858#2 -858#1 -858#0 726#1 726#2 857#2 857#3 857#4 857#0 703#0 852 -705#4 -705#3 -705#2 -705#1 -705#0 283"/>
    </vehicle>
    <vehicle id="2wheeler_2_51" type="motorcycle" depart="19201.00" departLane="best">
        <route edges="1407#6 1407#7 1407#8 1407#9 1407#11 223#3 223#4 223#5 223#6 223#7 223#8 223#9 223#10 295#1 295#2 295#3 -808#1 -808#0 192 -809#1 -809#0 -1372#4 -1372#3 -1372#2 -1372#0 1368#1 1368#2 1368#3 1368#4 1368#5 1368#6 -143#0 -1351#3 1338#0 1338#1 1338#2 1338#3 1338#4 1338#5 1338#6 1338#7 1338#8 1338#9 -1252#2 -1252#1 -1252#0 -1343#1 -1343#0 1341#14 1341#15 1341#16"/>
    </vehicle>
    <vehicle id="2wheeler_3_1837" type="moped" depart="19205.00" departLane="best">
        <route edges="1571#1 1573#1 923#0 754 926#1 1578 223#0 223#1 223#2 223#3 223#4 223#5 223#6 223#7 223#8 -927#3 -927#2 -927#1 -927#0 -816#1 -816#0 298#0 298#1 298#2 856#0 856#1 856#2 316#1 201 211#3 211#4 202 205#3 -197 -747#2 -747#1"/>
    </vehicle>
    <vehicle id="2wheeler_GW1_559" type="motorcycle" depart="19220.00" departLane="best">
        <route edges="430#0 434 172 437 221#1 180 771 290 1578 223#0 223#1 223#2 223#3 223#4 223#5 223#6 223#7 223#8 223#9 223#10 295#1 295#2 818#0 818#1 213 299 -877 812#1 812#2 902#0 902#1 902#2 902#3 -817#1 -817#0 895#3 895#4 800#0"/>
    </vehicle>
    <vehicle id="2wheeler_1_45" type="motorcycle" depart="19237.00" departLane="best">