<?xml version="1.0" encoding="UTF-8"?>

<!--
    Monaco SUMO Traffic (MoST) Scenario
    Copyright (C) 2018
    Lara CODECA

    This program is free software: you can redistribute it and/or modify
    it under the terms of the GNU General Public License as published by
    the Free Software Foundation, either version 3 of the License, or
    (at your option) any later version.

    This program is distributed in the hope that it will be useful,
    but WITHOUT ANY WARRANTY; without even the implied warranty of
    MERCHANTABILITY or FITNESS FOR A PARTICULAR PURPOSE.  See the
    GNU General Public License for more details.

    You should have received a copy of the GNU General Public License
    along with this program.  If not, see <http://www.gnu.org/licenses/>.
-->

<routes xmlns:xsi="http://www.w3.org/2001/XMLSchema-instance" xsi:noNamespaceSchemaLocation="http://sumo.dlr.de/xsd/routes_file.xsd">
    <vehicle id="other_1-GW2_100" type="other" depart="18015" departLane="best" arrivalPos="random">
        <route edges="13474 13490 13340 13491#0 13491#1 13379 13389#3 13389#4 13380 13383#3 13383#0 13341 13495 13276 -13456 -13363 13866 13362 13872 13361 13833 13360 13356 13741#0 13741#1 13434#2 -13679 -13674 13221 13293 13525 13526#1 -13654#4 -13654#3 -13654#2 -13654#1 -13654#0 13648 13289 14439#0 14439#1 14439#2 14439#3 14439#4 14397#0 14397#1 14397#2 14397#3 14397#4 14006#2 14433#0 14433#1 14428#0 14428#1 14428#2 14431#2 -14031 -13353 13626"/>
    </vehicle>
    <vehicle id="other_1-2_22" type="other" depart="18034" departLane="best" arrivalPos="random">
        <route edges="-13720#6 -13720#5 -13720#4 -13720#3 -13720#2 -13720#1 -13720#0 13719#1 -14475 -14474 13720#1 13720#2 13720#3 13720#4 13720#5 13720#6 13424#2 13424#3 -13585#1 -13678#9 -13678#8 -13678#7 -13678#6 -13678#5 -13678#4 -13678#3 -13678#2 -13678#1 -13678#0 13526#4 13526#1 -13654#4 -13654#3 -13654#2 -13654#1 -13654#0 13648 13289 13417#1 13291 -14554#7 -14554#6 -14554#5 -14554#4 -14554#3 -14554#2 -14554#1 -14554#0 -14446#1 -14400#4 -14400#3 -14400#2 -14400#1"/>
    </vehicle>
    <vehicle id="other_GW2-1_392" type="other" depart="18039" departLane="best" arrivalPos="random">
        <route edges="-14534 13326 14533#0 14533#1 14532#1 14079#0 14079#1 13305 14412 14717 13401#0 13401#1 13401#2 13401#3 13401#4 13401#5 13401#6 13401#7 13218 13220#0 13220#1 13470#1 13470#2 13973#0 13973#1 14062 13886#0 13886#1 13886#2 13886#3 13886#4 13886#5 13886#6 13886#7 13886#8 13886#9 13886#10 13886#11 13831 13300 13857#0 13891 14018#2 13304 13773#0 13839#0 13839#1 13839#2 13839#3 13788 13737 -13847#2 -13744#2 -13744#1 -13722#0 -13749#5 -13749#4 -13749#3 -13749#2 -13749#1 -13749#0 13726#0 13726#1 13726#2 13606#0 -13730#1 13743"/>
    </vehicle>
    <vehicle id="other_1-GW2_75" type="other" depart="18041" departLane="best" arrivalPos="random">
        <route edges="-14019#2 -13879 13886#10 13886#11 13831 13300 13857#0 13891 14018#2 13304 13773#0 13773#1 13773#2 13773#3 13773#4 13773#5 13775 13776 13739#1 13739#2 13739#3 13739#4 13739#5 13739#6 13739#7 13739#8 13739#9 13739#10 13739#11 13677#1 13677#2 13221 13293 13525 13526#1 -13654#4 -13654#3 -13654#2 -13654#1 -13654#0 13648 13289 14439#0 14439#1 14439#2 14439#3 14439#4 14397#0 14397#1 14397#2 14397#3 14397#4 14006#2 14433#0 14433#1 14428#0 14428#1 14428#2 14431#2 -14031 -13353 13626"/>
    </vehicle>
    <vehicle id="other_1_32" type="other" depart="18078" departLane="best" arrivalPos="random">
        <route edges="13680 13678#8 13678#9 13585#1 13424#4 13424#1 13424#2 13425#0 13425#1 -13724#0 -13739#10 -13739#9 -13739#8 -13739#7 -13739#6 -13739#5 -13739#4 -13739#3 -13739#2 -13739#1 13774#0 13774#1 -13847#5 -13847#4 -13847#3 -13847#2 -13847#0 13882#0 13882#1 13882#2 14012#2 14012#3 13892 14034#1 14034#2 14034#3 14034#4 13375 13383#0 13383#1 13383#2 -13380 13389#1 13388 -13970#2 -13970#1 -13970#0 14635 14049#2 14049#3 13958#0 14040#0 14040#1 13530#1 13530#2 13469#0 13469#1"/>
    </vehicle>
    <vehicle id="other_2-1_386" type="other" depart="18103" departLane="best" arrivalPos="random">
        <route edges="14017#0 13865 13857#2 13219 14043#0 14624#0 14624#1 14624#2 14624#3 13897#0 13897#1 14034#10 14033#2 14033#3 14033#4 -13889#3 -13889#2 -13889#1 -13889#0 -13848 13835 -13844 -13845 13846 13871 13875 -13937 -14021"/>
    </vehicle>
    <vehicle id="other_1-GW1_479" type="other" depart="18107" departLane="best" arrivalPos="random">
        <route edges="-13902#2 -13902#1 -13902#0 14515#2 14515#3 -14514#0 14518#2 14518#3 14518#4 14518#5 13964#1 -13370 13963#0 13963#1 13470#0 -13220#1 -13220#0 -13218 -13401#7 -13401#6 -13401#5 -13401#4 -13401#3 -14553#11 -14553#9 -14553#8 -14553#7 -14553#6 -14553#5 -14553#4 -14553#3 -14553#2 -14553#1 -14553#0 14550#26 -13373 -14416 -13372 -14551#1 -14551#0 -13327 -13999 -13374 -14552"/>
    </vehicle>
    <vehicle id="other_1_99" type="other" depart="18112" departLane="best" arrivalPos="random">
        <route edges="-14010#4 -13667#1 -14139#1 -14139#0 14139#0 14139#1 13667#1 14010#4 13678#7 13678#8 13678#9 13585#1 13424#4 13424#1 13424#2 13425#0 13425#1 -13724#0 -13739#10 -13739#9 -13739#8 -13739#7 -13739#6 -13739#5 -13739#4 -13739#3 -13739#2 -13739#1 13774#0 13774#1 -13847#5 -13847#4 -13847#3 -13847#2 -13847#0 13882#0 13882#1 13882#2 14012#2 14012#3 13892 14034#1 14034#2 14034#3 14034#4 14034#5 14034#6 14034#7 14034#8 14034#10 14033#2 14033#3 14033#4 14033#5 13851 13890#0 13890#1"/>
    </vehicle>
    <vehicle id="other_GW1-1_11" type="other" depart="18112" departLane="best" arrivalPos="random">
        <route edges="14552 13374 13999 13327 14551#0 14551#1 13372 14416 13373 -14550#26 -14550#25 -14550#24 -14550#23 -14084#1 13994 -13991#0 -14550#20 -14550#19 -14550#18 -14550#17 -14550#16 -14550#15 -14550#14 -14550#13 -14550#12 -14550#11 -14550#10 -14550#9 -14550#8 -14550#7 -14550#6 -14550#5 -14550#3 -14550#2 -14550#1 -14550#0 13490 13340 13491#0 13491#1 13379 13389#3 13191 13189#0 13189#1 13189#2"/>
    </vehicle>
    <vehicle id="other_1-3_205" type="other" depart="18117" departLane="best" arrivalPos="random">
        <route edges="13529#0 13529#1 13529#2 13217#1 13607#0 13607#1 13607#2 13607#4 13607#6 13726#4 13742#3 13742#4 13352 -13360 -13833 -13361 -13872 -13362 -13866 13363 13456 -13276 13533 13382 13383#2 -13380 13389#1 13389#2 13389#3 13191 13189#0 13190 14042 -13340 -13490 -14032 14550#1 14550#2 14550#3 14550#5 14550#6 14550#7 14550#8 14550#9 14550#10 14550#11 14550#12 14550#13 14550#14 14550#15 14550#16 14550#17 14550#18 14550#19 14550#20 13991#0 -13994 14084#1 14550#23 14550#24 14550#25 14550#26 -13373 -14416 -13372 -14551#1 -14551#0 -13327 -13999 -13374 -14552 14552 13374 13999"/>
    </vehicle>
    <vehicle id="other_1_743" type="other" depart="18128" departLane="best" arrivalPos="random">
        <route edges="13215#0 13215#1 13468#0 13468#1 13468#2 -13215#1 -13215#0 -13945#2 -13945#1 -13945#0 14057 14056#3 -13972#1 -13959#2 -13959#1 -13959#0 13970#0 13970#1 13970#2 -13369 13929 13189#3 13189#4 13189#5 13893#0 13893#1 13893#2 14033#4 -13889#3 -13889#2 -13889#1 -13889#0 -13848 13932 13934 -13961 13957 13956#0 13956#1 13953 13954 14016 13952#1 13952#2 13949 13941 13935"/>
    </vehicle>
    <vehicle id="other_1_554" type="other" depart="18140" departLane="best" arrivalPos="random">
        <route edges="13942#0 13942#1 13942#2 13942#3 -13904#6 -13904#5 -13904#4 -13904#3 -13904#2 -13904#1 -13904#0 -14061#1 -14061#0 -14043#4 -14043#3 -14043#2 -14043#1 -14043#0 -13219 14018#0 14018#1 14018#2 13304 13773#0 13773#1 13773#2 13773#3 13773#4 13773#5 13775 13776 13739#1 13739#2 13739#3 13739#4 13739#5 13739#6 13739#7 13739#8 13739#9 13739#10 13739#11 13677#1"/>
    </vehicle>
    <vehicle id="other_GW2-1_404" type="other" depart="18215" departLane="best" arrivalPos="random">
        <route edges="14526#0 14526#1 14526#2 14525#1 14525#2 14525#3 14525#4 14525#5 14525#6 14525#7 14507#1 13806#0 -13808#2 -13808#1 -13808#0 14465#0 14465#1 14637#0 14637#2 14466 14461#1 14461#2 -13700#1 -13700#0 -14458#5 -14458#4 -14458#3 -14458#2 -14458#1 -14458#0 -14457#0 -13320 -14459#1 -14459#0 -13321 -14486#5 -14403#5 -14403#4 -14403#3 -14403#2 -14403#1 -14403#0 14005#3 -14473#1 -14473#0 13721#0 13721#1 13721#2 13721#3 13721#4 13721#5 14480#0 14480#1 14480#2 13751 13750 13614 13719#0 13720#0 13720#1 13720#2 13720#3 13720#4 13720#5 13720#6 13424#2 13424#3 13424#4 13424#1 -13720#6"/>
    </vehicle>
    <vehicle id="other_2-1_381" type="other" depart="18216" departLane="best" arrivalPos="random">
        <route edges="13649#0 13649#1 13649#2 13649#3 13649#4 13197 -14449#0 13416#0 13416#1 -13651#1 -13651#0 -13290 -13659#3 -13659#2 -13659#1 -13659#0 13294 13222#0 13222#1 13679 13434#3 13434#0 13434#1 -13741#1 -13741#0 -13296 -13360 -13833 -13361 -13872 -13362 -13866 13363 13456 -13276 13533 13382 13383#2 13383#3 -13375 14034#5 14034#6 14034#7 14034#8 14034#10 14033#2 14033#3 14033#4 14033#5 13851 13890#0 13890#1 13890#2 13890#3 13459#0 13459#1 13849 13453 13843 -13841 14020 -13849"/>
    </vehicle>
    <vehicle id="other_GW2-1_82" type="other" depart="18236" departLane="best" arrivalPos="random">
        <route edges="14526#0 14526#1 14526#2 14525#1 14525#2 14525#3 14525#4 14525#5 14525#6 14525#7 14507#1 13806#0 -13808#2 -13808#1 -13808#0 14465#0 14465#1 14637#0 14401#0 14401#1 14401#2 14401#3 14401#4 14401#5 14401#6 14401#7 14401#8 14401#9 14401#11 14401#12 -14409#7 -14409#6 -14409#5 -14409#4 -14409#3 -14409#2 -14409#1 -14409#0 -14518#0 -14515#3 -14515#2 -14515#1 14517 13884#1 13884#2 13884#3 13884#4 13884#5 13886#8 13873"/>
    </vehicle>
    <vehicle id="other_GW1-1_268" type="other" depart="18250" departLane="best" arrivalPos="random">
        <route edges="13597#0 13597#0-AddedOffRampEdge 13601 13350 13604 13274 13397 13273 13399#0 13399#1 13358 13927 13280 13608 13465 14717 13401#0 13401#1 13401#2 13401#3 13401#4 13401#5 13401#6 13401#7 13218 13220#0 13220#1 13470#1 13470#2 13973#0 13973#1 14062 13886#0 13886#1 13886#2 13886#3 13886#4 13886#5 13886#6 13886#7 13886#8 13886#9 13886#10 13886#11 13831 13300 13857#0 13891 14018#2 13304 13773#0 13773#1 13773#2 -13778#3 -13778#2 13787 13783#0 13784 -13563#3"/>
    </vehicle>
    <vehicle id="other_1-3_433" type="other" depart="18257" departLane="best" arrivalPos="random">
        <route edges="13970#2 -13369 13929 13189#3 13189#4 13189#5 13189#6 13189#7 -13191 13389#4 13389#1 13389#2 -13379 13351 13602 -13401#7 -13401#6 -13401#5 -13401#4 -13401#3 -13401#2 -13401#1 -13401#0 14713 14710#1 14712#1 14076#0 14076#1 -14532#1 -14532#0 -14533#0 -13326 14534 -14534 13326 14533#0 14533#1"/>
    </vehicle>
    <vehicle id="other_1_619" type="other" depart="18282" departLane="best" arrivalPos="random">
        <route edges="13495 13276 -13456 -13363 13866 13362 13872 13361 13833 13360 13357 13726#1 13726#2 13606#0 13606#2 13606#4 13606#5 13606#6"/>
    </vehicle>
    <vehicle id="other_1-3_161" type="other" depart="18297" departLane="best" arrivalPos="random">
        <route edges="-14487#1 -14487#0 13721#0 13721#1 13721#2 13721#3 13721#4 13721#5 14480#0 14480#1 14480#2 14014 13756 13786#2 -13773#5 -13773#4 -13773#3 -13773#2 -13773#1 -13773#0 13299 14017#0 13865 13857#2 13219 14043#0 14624#0 14624#1 14624#2 14624#3 13897#0 13897#1 14034#10 14033#2 14033#3 -13893#2 -13893#1 -13893#0 13189#6 13189#7 -13191 13389#4 13389#1 13389#2 -13379 13351 13602 -13401#7 -13401#6 -13401#5 -13401#4 -13401#3 -13401#2 -13401#1 -13401#0 14713 14710#1 14712#1 14076#0 14076#1 -14532#1 -14532#0 -14533#0"/>
    </vehicle>
    <vehicle id="other_GW1-1_13" type="other" depart="18340" departLane="best" arrivalPos="10.274672975818444">
        <route edges="13597#0 13597#0-AddedOffRampEdge 13601 13350 13604 13274 13397 13273 13399#0 13399#1 13358 13927 13280 13608 13465 14717 13401#0 13401#1 13401#2 13401#3 13401#4 13401#5 13401#6 13401#7 13218 13220#0 13220#1 13470#1 13470#2 13973#0 13973#1 13391 13474 13184 13493 13967#2 14056#0 14056#1 14056#2 14056#3 -13972#1 -13959#2 -13959#1 -13959#0 13970#0 -14634#2"/>
        <stop parkingArea="1120" until="44750"/>
    </vehicle>
    <vehicle id="other_1-GW2_69" type="other" depart="18341" departLane="best" arrivalPos="random">
        <route edges="13958#1 14057 14056#3 -13972#1 -13959#2 -13959#1 -13959#0 13970#0 13970#1 13970#2 -13369 13929 13189#3 13189#4 13189#5 13189#6 13189#7 -13191 13389#4 13380 13383#3 13383#0 13341 13495 13276 -13456 -13363 13866 13362 13872 13361 13833 13360 13356 13741#0 13741#1 13434#2 -13679 -13674 13221 13293 13525 13526#1 -13654#4 -13654#3 -13654#2 -13654#1 -13654#0 13648 13289 14439#0 14439#1 14439#2 14439#3 14439#4 14397#0 14397#1 14397#2 14397#3 14397#4 14006#2 14433#0 14433#1 14428#0 14428#1 14428#2 14431#2 -14031 -13353 13626"/>
    </vehicle>
    <vehicle id="other_1_731" type="other" depart="18347" departLane="best" arrivalPos="random">
        <route edges="13340 13491#0 13491#1 13379 13389#3 13389#4 13380 13383#3 -13375 14034#5 14034#6 14034#7 14034#8 -13897#1 -13897#0 -14624#3 -14624#2 -14624#1 -14624#0 -14043#0 13899#0 13899#1 14627#0 14627#1 -13854 -13873 -13886#8 -13884#5 -13884#4 13901 -13862 13884#4 13884#5"/>
    </vehicle>
    <vehicle id="other_1-2_14" type="other" depart="18365" departLane="best" arrivalPos="random">
        <route edges="14475 13719#2 14479#0 14479#1 14479#2 14479#3 14480#0 14480#1 14480#2 13751 13750 13614 13719#0 13720#0 13720#1 13720#2 13720#3 13720#4 13720#5 13720#6 13424#2 13424#3 -13585#1 -13678#9 -13678#8 -13678#7 -13678#6 -13678#5 -13678#4 -13678#3 -13678#2 -13678#1 -13678#0 13526#4 13526#1 -13654#4 -13654#3 -13654#2 -13654#1 -13654#0 13648 13289 14439#0 14439#1 14439#2 14439#3 14439#4 14397#0 14397#1 14397#2 14397#3 14397#4 14006#2 14433#0 14433#1 14428#0 14428#1 14428#2 14431#2 14566 -14086#0"/>
    </vehicle>
    <vehicle id="other_GW2-1_240" type="other" depart="18369" departLane="best" arrivalPos="random">
        <route edges="14732 13353 -13627 -14431#2 -14428#2 -14428#1 -14428#0 -14433#1 -14433#0 14006#3 14006#0 -13630#6 -13630#5 -13630#4 -13630#3 -13630#2 -13630#1 -13630#0 14446#1 14554#0 14554#1 14554#2 14554#3 14554#4 14554#5 14554#6 14554#7 13657#1 13421 13654#0 13654#1 13654#2 13654#3 13654#4 13526#2 13526#3 13526#4 13526#1 -13654#4 -13654#3 -13654#2"/>
    </vehicle>
    <vehicle id="other_GW1-1_259" type="other" depart="18374" departLane="best" arrivalPos="random">
        <route edges="14552 13374 13999 13327 14551#0 14551#1 13372 14416 13373 -14550#26 -14550#25 -14550#24 -14550#23 -14084#1 13994 -13991#0 -14550#20 -14550#19 -14550#18 -14550#17 -14550#16 -14550#15 -14550#14 -14550#13 -14550#12 -14550#11 -14550#10 -14550#9 -14550#8 -14550#7 -14550#6 -14550#5 -14550#3 -14550#2 -14550#1 -14550#0 13490 13340 13491#0 13491#1 13379 13389#3 13389#4 13380 13383#3 -13375 14034#5 14034#6 14034#7 14034#8 -13897#1 -13897#0 -14624#3 -14624#2 -14624#1 -14624#0 -14043#0 -13219 14018#0 14018#1 14018#2 13304 13773#0 13773#1 13773#2 -13778#3 -13780#1 -13780#0 14045#1 14045#2 14045#3 14045#4 14045#5"/>
    </vehicle>
    <vehicle id="other_GW1-1_295" type="other" depart="18374" departLane="best" arrivalPos="random">
        <route edges="13342 13589 13278 13588#0 13598 13631 13584#3 13584#4 14455#0 14455#1 14455#2 14455#3 14455#4 14455#5 14455#6 14455#7 -14457#1 -14457#0 -13320 -14459#1 -14459#0 -13321 -14486#5 -14403#5 -14403#4 -14403#3 -14403#2 -14403#1 -14403#0 14005#3 -14473#1 -14473#0 14487#0 14487#1 14487#3 14487#4 14487#5 14487#6"/>
    </vehicle>
    <vehicle id="other_2-1_224" type="other" depart="18377" departLane="best" arrivalPos="91.20995329811235">
        <route edges="13401#2 13401#3 13401#4 13401#5 13401#6 13401#7 13218 13220#0 13220#1 13470#1 13470#2 13973#0 13973#1 14062 13886#0 13886#1 13886#2 13886#3 13886#4 13886#5 13886#6 13886#7 13886#8 13886#9 13886#10 13886#11 13831 13300 13857#0 13891 14018#2 13304 13773#0 13773#1 13773#2 13773#3 13773#4 13773#5 13775 13777#0 13777#1 13777#2 13750 13614 13719#0 13719#1 13719#2 14470#0 14470#1 14470#2 14470#3 14470#4 14085#0 14085#1 13721#1"/>
        <stop parkingArea="1080" until="44104"/>
    </vehicle>
    <vehicle id="other_1_754" type="other" depart="18386" departLane="best" arrivalPos="random">
        <route edges="13854 14627#2 14627#3 14627#0 14019#0 14019#1 14019#2 13886#11 13831 13300 13857#0 13857#1 13857#2 13219 14043#0 14624#0 14624#1 14624#2 14624#3 13897#0 13897#1 14034#10 14033#2 14033#3 14033#4 -13889#3 -13889#2 -13889#1 -13889#0 -13848 13932"/>
    </vehicle>
    <vehicle id="other_1_458" type="other" depart="18399" departLane="best" arrivalPos="random">
        <route edges="13425#0 13425#1 -13724#0 -13739#10 -13739#9 -13739#8 -13739#7 -13739#6 -13739#5 -13739#4 -13739#3 -13739#2 -13739#1 13774#0 13774#1 -13847#5 -13847#4 -13847#3 -13847#2 -13847#0 13882#0 13882#1 13882#2 14012#2 14012#3 13892 14034#1 13877#0 13877#1 13877#2 13856#0 -13870 -13855#0"/>
    </vehicle>
    <vehicle id="other_1_21" type="other" depart="18410" departLane="best" arrivalPos="random">
        <route edges="13895#1 13895#2 13895#3 13864#0 13864#1 -13904#0 -14061#1 -14061#0 -14043#4 -14043#3 -14043#2 -14043#1 -14043#0 -13219 14018#0 14018#1 14018#2 13304 13773#0 13839#0 13839#1 13839#2 -13618 -14013#2"/>
    </vehicle>
    <vehicle id="other_1_475" type="other" depart="18435" departLane="best" arrivalPos="random">
        <route edges="14454#4 14454#5 13662#1 13662#2 13654#2 13654#3 13654#4 13526#2 13526#3 13526#4 -13525 -13293 -13221 13674 13679 13434#3 13434#0 13434#1 -13741#1 -13741#0 -13296 -13360 -13833 -13361 -13872 -13362 -13866 13363 13456 -13276 13533 13382 13383#2 -13380 13389#1 13388 -13970#2 -13970#1 14634#3"/>
    </vehicle>
    <vehicle id="other_1-2_347" type="other" depart="18443" departLane="best" arrivalPos="random">
        <route edges="13360 13357 13726#1 13726#2 13726#3 13726#4 13742#3 13742#4 13352 -13360 -13833 -13361 -13872 -13362 -13866 13363 13456 -13276 13533 13382 13383#2 -13380 13389#1 13389#2 -13379 13351 13602 -13401#7 -13401#6 -13401#5 -13401#4 -13401#3 -13401#2 -13401#1 -13401#0 14713 13477 -14081#6 -14530#6 -14530#5 -14530#4 -14530#3 -14530#2 -14530#1 -14530#0 14525#5 14509#0 14509#1 14509#2 14509#3 13488#1 13485#0 13485#1 13485#2 13485#3"/>
    </vehicle>
    <vehicle id="other_GW2-1_291" type="other" depart="18447" departLane="best" arrivalPos="random">
        <route edges="14526#0 14526#1 14526#2 14525#1 14525#2 14525#3 14525#4 14525#5 14525#6 14525#7 14507#1 13806#0 -13808#2 -13808#1 -13808#0 14465#0 14465#1 14637#0 14637#2 14466 14461#1 14461#2 -13700#1 -13700#0 -14458#5 -14458#4 -14458#3 -14458#2 -14458#1 -14458#0 -14457#0 -13320 -14459#1 -14459#0 -13321 -14486#5 -14403#5 -14403#4 -14405#11 -14405#10 -14405#9 -14405#8 -14405#7 -14405#6 -14405#5 -14405#4 -14405#2 -14405#1 -14405#0 -14489#1 -14489#0 14487#14 14487#15 14487#16 14071 14073 13778#0 13778#1 13778#2 13778#3 13773#3 13773#4 13773#5"/>
    </vehicle>
    <vehicle id="other_GW2-1_325" type="other" depart="18484" departLane="best" arrivalPos="random">
        <route edges="14526#0 14526#1 14526#2 14525#1 14525#2 14525#3 14525#4 14525#5 14525#6 14525#7 14507#1 13806#0 -13808#2 -13808#1 -13808#0 14465#0 14465#1 14637#0 14637#2 14466 14461#1 14461#2 -13700#1 -13700#0 -14458#5 -14458#4 -14458#3 -14458#2 -14458#1 -14458#0 -14457#0 -13320 -14459#1 -14459#0 -13321 -14486#5 -14403#5 -14403#4 -14403#3 -14403#2 -14403#1 -14403#0 14005#3 -14473#1 -14473#0 13721#0 13721#1 13721#2 13721#3 13721#4 13721#5 14480#0 14480#1 14480#2 13751 13750 13614 13719#0 13720#0 13720#1 13720#2 13720#3 13720#4 13720#5 13720#6 13424#2 13424#3 -13585#1 -13678#9 -13678#8 -13678#7 -13678#6 -13678#5 -13678#4 -13678#3 -13678#2"/>
    </vehicle>
    <vehicle id="other_3-1_344" type="other" depart="18531" departLane="best" arrivalPos="random">
        <route edges="13975 14551#1 13372 14416 13373 -14550#26 -14550#25 -14550#24 -14550#23 -14084#1 13994 -13991#0 -14550#20 -14550#19 -14550#18 -14550#17 -14550#16 -14550#15 -14550#14 -14550#13 -14550#12 -14550#11 -14550#10 -14550#9 -14550#8 -14550#7 -14550#6 -14550#5 -14550#3 -14550#2 -14550#1 -14550#0 13490 13340 13491#0 13491#1 13379 13389#3 13389#4 13380 13383#3 -13375 -13903#2 13877#1 13877#2 -13838#1 -13838#0"/>
    </vehicle>
    <vehicle id="other_1-3_70" type="other" depart="18549" departLane="best" arrivalPos="random">
        <route edges="-13736#5 -13736#4 -13736#3 -13736#2 -13736#1 -13736#0 13434#1 -13741#1 -13741#0 -13296 -13360 -13833 -13361 -13872 -13362 -13866 13363 13456 -13276 13533 13382 13383#2 -13380 13389#1 13389#2 -13379 13351 13602 -13401#7 -13401#6 -13401#5 -13401#4 -13401#3 -13401#2 -13401#1 -13401#0 14713 14710#1 14712#1 14076#0 14076#1 -14532#1 -14532#0 -14533#0 -13326 14534 -14534 13326 14533#0 14533#1"/>
    </vehicle>
    <vehicle id="other_1_772" type="other" depart="18553" departLane="best" arrivalPos="random">
        <route edges="13886#10 13886#11 13831 13300 13857#0 13891 14018#2 13304 13773#0 13839#0 13839#1 13839#2 13839#3 13788 13737 -13847#2 -13744#2 -13744#1 13722#1 13842"/>
    </vehicle>
    <vehicle id="other_3-1_77" type="other" depart="18572" departLane="best" arrivalPos="random">
        <route edges="14526#0 14526#1 14526#2 14525#1 14525#2 14525#3 14525#4 14525#5 14525#6 14525#7 14507#1 13806#0 -13808#2 -13808#1 -13808#0 14465#0 14465#1 14637#0 14637#2 14466 14461#1 14461#2 -13700#1 -13700#0 -14458#5 -14458#4 -14458#3 -14458#2 -14458#1 -14458#0 -14457#0 -13320 -14459#1 -14459#0 -13321 -14486#5 -14403#5 -14403#4 -14405#11 -14405#10 -14405#9 -14405#8 -14405#7 -14405#6 -14405#5 -14405#4 -14405#2 -14405#1 -14405#0 -14489#1 -14489#0 14487#14 14487#15 14487#16 14071 14073 13778#0 13778#1 13778#2 13778#3 13773#3 13773#4 13773#5 13775 13776 13739#1 13739#2 13739#3 13739#4 13739#5 13739#6 13739#7"/>
    </vehicle>
    <vehicle id="other_1_193" type="other" depart="18580" departLane="best" arrivalPos="random">
        <route edges="13538#1 14017#0 14017#1 -13886#11 -14019#2 -14019#1 -14019#0 14627#1 14627#2 13942#0 13942#1 13942#2 13942#3 13942#4 13942#5 -13971#1 -13971#0 13473#0 13473#1 13473#2 13473#3 13971#0"/>
    </vehicle>
    <vehicle id="other_1-GW1_516" type="other" depart="18583" departLane="best" arrivalPos="random">
        <route edges="-13662#1 -13661 -13354 13666 -14015#3 -14015#2 -14015#1 -14015#0 14039#0 14039#1 13390 -13687#2 -13687#1 -13687#0 13526#3 13526#4 -13525 -13293 -13221 13674 13679 13434#3 13434#0 13434#1 -13741#1 -13741#0 -13296 -13360 -13833 -13361 -13872 -13362 -13866 13363 13456 -13276 13533 13382 13383#2 -13380 13389#1 13389#2 13389#3 13191 13189#0 13190 14042 -13340 -13490 -14032 14550#1 14550#2 14550#3 14550#5 14550#6 14550#7 14550#8 14550#9 14550#10 14550#11 14550#12 14550#13 14550#14 14550#15 14550#16 14550#17 14550#18 14550#19 14550#20 13991#0 -13994 14084#1 14550#23 14550#24 14550#25 14550#26 -13373 -14416 -13372 -14551#1 -14551#0 -13327 -13999 -13374 -14552"/>
    </vehicle>
    <vehicle id="other_1_115" type="other" depart="18596" departLane="best" arrivalPos="random">
        <route edges="13533 13382 13383#2 13383#3 -13375 14034#5 14034#6 14034#7 14034#8 -13897#1 -13897#0 -14624#3 -14624#2 -14624#1 -14624#0 -14043#0"/>
    </vehicle>
    <vehicle id="other_GW1-1_288" type="other" depart="18602" departLane="best" arrivalPos="113.41541258546857">
        <route edges="14552 13374 13999 13327 14551#0 14551#1 13372 14416 13373 -14550#26 14553#0 14553#1 14553#2 14553#3 14553#4 14553#5 14553#6 14553#7 14553#8 14553#9 14553#11 13401#3 13401#4 13401#5 13401#6 13401#7 13218 -14080#3 -14080#2 -14080#1 -14080#0 -13971#1"/>
        <stop parkingArea="1116" until="45135"/>
    </vehicle>
    <vehicle id="other_1_701" type="other" depart="18608" departLane="best" arrivalPos="random">
        <route edges="-13853 13737 13847#3 13847#4 13847#5 -13774#1 -13774#0 13739#1 13739#2 13739#3 13786#0 13777#2 13750 13614 13719#0 13719#1 13719#2 14470#0 14470#1 14470#2"/>
    </vehicle>
    <vehicle id="other_3-1_73" type="other" depart="18612" departLane="best" arrivalPos="random">
        <route edges="13485#3 13322 14469 13323 -14510 14510 -13323 -14469 -13322 -13485#3 -13485#2 -13485#1 -13485#0 13484 13516#1 -14509#3 -14509#2 -14509#1 -14509#0 14525#6 14525#7 14507#1 13806#0 -13808#2 -13808#1 -13808#0 14465#0 14465#1 14637#0 14637#2 14466 14461#1 14461#2 -13700#1 -13700#0 -14458#5 -14458#4 -14458#3 -14458#2 -14458#1 -14458#0 -14457#0 -13320 -14459#1 -14459#0 -13321 -14486#5 -14403#5 -14403#4 -14405#11 -14405#10 -14405#9 -14405#8 -14405#7 -14405#6 -14405#5 -14405#4 -14405#2 -14405#1 -14405#0 -14489#1 -14489#0 14487#14 14487#15 14487#16 14631 -14629#2 -14629#1"/>
    </vehicle>
    <vehicle id="other_GW2-1_171" type="other" depart="18620" departLane="best" arrivalPos="random">
        <route edges="14732 13353 -13627 -14431#2 -14428#2 -14428#1 -14428#0 -14433#1 -14433#0 14006#3 14006#0 -13630#6 -13630#5 -13630#4 -13630#3 -13630#2 -13630#1 -13630#0 14446#1 14554#0 14554#1 14554#2 14554#3 14554#4 14554#5 14554#6 14554#7 13657#1 13421 13654#0 13654#1 13654#2 13654#3 13654#4 13526#2 13526#3 13526#4 -13525 -13293 -13221 -13677#2 -13677#1 -13677#0 -13739#10 -13739#9 -13739#8 -13739#7 -13739#6 -13739#5 -13739#4 13786#0 13786#1 13786#2 -13773#5 -13773#4 -13773#3 -13773#2 -13773#1 -13773#0 13299 14017#0 14017#1 -13886#11 -14019#2 -14019#1 -14019#0 14627#1 14627#2 13942#0"/>
    </vehicle>
    <vehicle id="other_3-1_445" type="other" depart="18624" departLane="best" arrivalPos="random">
        <route edges="-14468#2 -14468#1 -14468#0 -13485#2 -13485#1 -13485#0 13484 13516#1 -14509#3 -14509#2 -14509#1 -14509#0 14525#6 14525#7 14507#1 13806#0 -13808#2 -13808#1 -13808#0 14465#0 14465#1 14637#0 14637#2 14466 14461#1 14461#2 -13700#1 -13700#0 -14458#5 -14458#4 -14458#3 -14458#2 -14458#1 -14458#0 -14457#0 -13320 -14459#1 -14459#0 -13321 -14486#5 -14403#5 -14403#4 -14405#11 -14405#10 -14405#9 -14405#8 -14405#7 -14405#6 -14405#5 -14405#4 -14405#2 -14405#1 -14405#0 -14489#1 -14489#0 14487#14 14487#15 14487#16 14071 14073 13778#0 13778#1 13778#2 13778#3 13852 13839#2 -13618 -14013#2 -14013#1 -14013#0 -13882#0"/>
    </vehicle>
    <vehicle id="other_GW2-1_415" type="other" depart="18627" departLane="best" arrivalPos="random">
        <route edges="14526#0 14526#1 14526#2 14525#1 14525#2 14525#3 14525#4 14525#5 14525#6 14525#7 14507#1 13806#0 -13808#2 -13808#1 -13808#0 14465#0 14465#1 14637#0 14637#2 14466 14461#1 14461#2 -13700#1 -13700#0 -14458#5 -14458#4 -14458#3 -14458#2 -14458#1 -14458#0 14457#1 14457#2 14457#3 14457#4 -13316 14443#0 14443#1 13315 13637 13377 -14446#4 -14446#3 -14446#2 14554#0 14554#1 14554#2 14554#3 14554#4 14554#5 14554#6 14554#7 13286 -14452#2 -14452#1 -14452#0 13288 -13650#1 14449#0 14449#1 14449#2 13217#1 -13418#1"/>
    </vehicle>
    <vehicle id="other_1-GW2_257" type="other" depart="18647" departLane="best" arrivalPos="random">
        <route edges="-14473#0 13721#0 13721#1 13721#2 13721#3 13721#4 13721#5 14480#0 14480#1 14480#2 13751 13750 13614 13719#0 13720#0 13720#1 13720#2 13720#3 13720#4 13720#5 13720#6 13424#2 13424#3 -13585#1 -13678#9 -13678#8 -13678#7 -13678#6 -13678#5 -13678#4 -13678#3 -13678#2 -13678#1 -13678#0 13526#4 13526#1 -13654#4 -13654#3 -13654#2 -13654#1 -13654#0 13648 13289 14439#0 14439#1 14439#2 14439#3 14439#4 14397#0 14397#1 14397#2 14397#3 14397#4 14006#2 14433#0 14433#1 14428#0 14428#1 14428#2 14431#2 -14031 -13353 13626"/>
    </vehicle>
    <vehicle id="other_1_1013" type="other" depart="18653" departLane="best" arrivalPos="random">
        <route edges="-14010#2 -14010#1 -14010#0 14039#0 14039#1 13390 -13687#2 -13687#1 -13687#0 13526#3 13526#4 -13525 -13293 -13221 -13677#2 -13677#1 -13677#0 -13739#10 -13739#9 -13739#8 -13739#7 -13739#6 -13739#5 -13739#4 13786#0 13786#1 13786#2 -13773#5 -13773#4 -13773#3 -13773#2 -13773#1 -13773#0 13299 14017#0 14017#1 -13886#11 -13886#10 -13886#9 -13886#8 -13886#7 -13886#6 -13886#5 -13886#4 -13886#3 -13908#6 -13908#5 -13902#2"/>
    </vehicle>
    <vehicle id="other_3-1_69" type="other" depart="18662" departLane="best" arrivalPos="random">
        <route edges="-13999 -13374 -14552 14552 13374 13999 13327 14551#0 14551#1 13372 14416 13373 -14550#26 14553#0 14553#1 14553#2 14553#3 14553#4 14553#5 14553#6 14553#7 14553#8 14553#9 14553#11 13401#3 13401#4 13401#5 13401#6 13401#7 13218 13220#0 13220#1 13470#1 13470#2 13470#3 -13963#1 -13963#0 13370 -13964#1 -13964#0 -14518#4 -14518#3 -14518#2"/>
    </vehicle>
    <vehicle id="other_1-GW1_205" type="other" depart="18676" departLane="best" arrivalPos="random">
        <route edges="13765#1 -13563#5 -13784 13783#1 13783#2 13783#3 -13773#3 -13773#2 -13773#1 -13773#0 13299 14017#0 13865 13857#2 13219 14043#0 14624#0 14624#1 14624#2 14624#3 13897#0 13897#1 14034#10 14033#2 14033#3 -13893#2 -13893#1 -13893#0 13189#6 13189#7 13189#0 13190 14042 -13340 -13490 -14032 14550#1 14550#2 14550#3 14550#5 14550#6 14550#7 14550#8 14550#9 14550#10 14550#11 14550#12 14550#13 14550#14 14550#15 14550#16 14550#17 14550#18 14550#19 14550#20 13991#0 -13994 14084#1 14550#23 14550#24 14550#25 14550#26 -13373 -14416 -13372 -14551#1 -14551#0 -13327 -13999 -13374 -14552"/>
    </vehicle>
    <vehicle id="other_GW2-1_8" type="other" depart="18695" departLane="best" arrivalPos="random">
        <route edges="14526#0 14526#1 14526#2 14525#1 14525#2 14525#3 14525#4 14530#0 14530#1 14530#2 14530#3 14530#4 14530#5 14530#6 14081#6 13478 14712#1 14038 13465 14717 13401#0 13401#1 13401#2 13401#3 13401#4 13401#5 13401#6 13401#7 13218 13220#0 13220#1 13470#1 13470#2 13973#0 13973#1 13391 13474 13184 13471"/>
    </vehicle>
    <vehicle id="other_1_210" type="other" depart="18746" departLane="best" arrivalPos="random">
        <route edges="13832 -13846 13845 13844 -13835 13848 13889#0 13889#1 13889#2 13889#3 14033#5 13851 13890#0 13890#1 13890#2 13890#3 13890#4 13888#0 13888#1 13888#2 13888#3 13888#4 13888#5 14012#0 14012#1 -13882#2 -13882#1 -13882#0 13847#0 -13452 13737 -13847#2 -13847#0 13882#0 13882#1"/>
    </vehicle>
    <vehicle id="other_1_406" type="other" depart="18748" departLane="best" arrivalPos="18.303067688727857">