<?xml version="1.0" encoding="UTF-8"?>

<!-- 
    Monaco SUMO Traffic (MoST) Scenario
    Copyright (C) 2018 
    Lara CODECA

    This program is free software: you can redistribute it and/or modify
    it under the terms of the GNU General Public License as published by
    the Free Software Foundation, either version 3 of the License, or
    (at your option) any later version.

    This program is distributed in the hope that it will be useful,
    but WITHOUT ANY WARRANTY; without even the implied warranty of
    MERCHANTABILITY or FITNESS FOR A PARTICULAR PURPOSE.  See the
    GNU General Public License for more details.

    You should have received a copy of the GNU General Public License
    along with this program.  If not, see <http://www.gnu.org/licenses/>.
-->

<routes xmlns:xsi="http://www.w3.org/2001/XMLSchema-instance" xsi:noNamespaceSchemaLocation="http://sumo.dlr.de/xsd/routes_file.xsd">
    <vehicle id="2wheeler_1_409" type="moped" depart="18122.00" departLane="best">
        <route edges="860#4 521#10 521#11 521#12 416#1 240#4 240#1 240#2 241#0 241#1 -569#0 -584#11 -584#10 -584#9 -584#8 -584#7 -584#6 -584#5 -585#2 -585#1 -585#0 -595#4 -595#3 -595#2 -595#1 -595#0 588 571#1 571#2 439#0 439#2 439#4 439#6 524 529 440#2 516"/>
    </vehicle>
    <vehicle id="2wheeler_2_310" type="moped" depart="18129.00" departLane="best">
        <route edges="240#4 240#1 240#2 240#3 -416#1 -521#12 -521#11 -521#10 -860#4 -860#3 -860#2 -860#1 -860#0 865#0 865#1 865#2 865#3 865#4 865#5 -502#0 -1321#5 -1321#4 -865#4 -865#3 -865#2 -865#1"/>
    </vehicle>
    <vehicle id="2wheeler_2_1014" type="motorcycle" depart="18142.00" departLane="best">
        <route edges="247 668#8 -307#0 306 338#1 -1377#3 -1377#2 -1377#1 -1377#0 1393#6 1393#7 1375#1 1366#1 652#0 -654#2 -654#1 -654#0 1332#0 1332#1 1512#0 1512#1 1512#2 1333 1328#1 1328#2 -544#1 -544#0 -1325#5 -1325#4 -1325#3 -1325#2 -1325#1 -1325#0 -1324#0 -1326#0 -1353#5 -1263#6 -1263#5 -1263#4 -1265#11 -1265#10 -1265#9 -1265#8 -1265#7 -1265#6 -1265#5 -1265#4 -1265#2 -1265#1 -1265#0 -1356#2 -1356#0 1354#15 1354#16 1354#17 923 925 924 627#0 611#0 -394#5 -394#4 -394#3"/>
    </vehicle>
    <vehicle id="2wheeler_2_646" type="motorcycle" depart="18300.00" departLane="best">
        <route edges="1364#0 1364#1 1364#2 1351#0 1351#1 1351#2 1351#3 1351#4 1351#5 1351#6 1351#7 1351#8 1351#9 -1265#2 -1265#1 -1265#0 -1356#2 -1356#0 1354#15 1354#16 1354#17 923 925 624#0 624#2 624#3 619#3 619#4 619#5 621 622 574#1 574#2 -595#5 585#0 585#1 -581#6 -581#5 -581#4 -581#3 -581#2 -581#1 -581#0 250#1 250#2 -522#1 -522#0 499#1 499#2 495#0 -487 -491#0 -499#2 -499#1 -499#0"/>
    </vehicle>
    <vehicle id="2wheeler_2_576" type="moped" depart="18425.00" departLane="best">
        <route edges="1345#3 1345#4 1345#5 1345#6 1345#7 1345#8 930#1 931 -895#5 1381#0 1381#1 1381#2 368#3 619#0 619#1 619#2 619#3 619#4 619#5 621 622 584#1 584#2 584#3 632#0 578 873 568 576 591 570 -584#9 -584#8"/>
    </vehicle>
    <vehicle id="2wheeler_2_867" type="moped" depart="18493.00" departLane="best">
        <route edges="-1298#2 -1295#2 -1295#1 -1295#0 -1300#1 -1300#0 856#3 856#0 -468#6 -468#5 -468#4 -468#3 -468#2 -468#1 -468#0 1313#1 1423#0 1423#1 1423#2 1423#3 1423#4 1423#5 1423#6 1423#7 497#1 236 494#0 494#1 494#2 494#3 494#4 350#2 350#3 350#4 -349 -95#0 -520#2 -520#1 -520#0 -584#11 -584#10 -584#9 -584#8 -584#7 -584#6 -584#5 -584#4 -584#3 -584#2 -584#1 620#0 620#1 -693#5 -693#4 -693#3 -693#2 -693#1 -693#0 729#0 729#1 729#2 862#2 862#3 739 884#1 884#2 884#3 884#4 188"/>
    </vehicle>
    <vehicle id="2wheeler_2_744" type="motorcycle" depart="18722.00" departLane="best">
        <route edges="-1404#0 -1418#13 -1418#12 -1418#11 -1418#10 -1418#9 -1418#8 -1418#7 -1418#6 -1418#5 -1418#3 -1418#2 -1418#1 -1418#0 312 153 313#0 313#1 193 204#3 204#4 204#1 203 -820#2 -820#1"/>
    </vehicle>
    <vehicle id="2wheeler_3_340" type="moped" depart="18765.00" departLane="best">
        <route edges="-1523#0 303#1 303#2 303#3 216#0 216#1 216#2 216#3 216#4 216#5 216#6 216#7 216#8 216#9 216#10 291#1 291#2 823#0 823#1 913 733#0 733#1 733#2 733#3 733#4 733#5 733#6 733#7 733#8 733#9 733#10 733#11 733#12 733#13 677 738 868#2 619#0 685#0 685#1 685#2 685#3 634 582 -693#2 -590#2 -590#1 -590#0 566#1"/>
    </vehicle>
    <vehicle id="2wheeler_3_377" type="motorcycle" depart="18769.00" departLane="best">
        <route edges="-1277 -1282#0 916#1 456 -918 -1437 -1298#2 -1295#2 -1295#1 -1295#0 -1300#1 -1300#0 856#3 856#0 856#1 -1257#4 -1257#3 -1257#2 -1257#1 -1257#0 -1304#3 470 -493#4 -493#3 -493#2 -493#1 -493#0 231#1 -491#1 -491#0 -499#2 -499#1 -499#0 522#1 250#3 250#0 250#1 -586#1 587#0 587#1 587#2 587#3 571#0 254"/>
    </vehicle>
    <vehicle id="2wheeler_2_104" type="motorcycle" depart="18780.00" departLane="best">
        <route edges="-1260#3 -1260#2 -1260#1 -1260#0 -1301#0 -1303#0 -1259#2 -1296#4 -221 -1296#2 1296#0 1296#1 1296#2 220 1296#4 1259#2 1303#0 1301#0 1301#1 1260#1 1260#2 1260#3 1260#4 1313#1 1423#0 1423#1 1423#2 1423#3 1423#4 1423#5 1423#6 1423#7 497#1 236 494#0 494#1 494#2 494#3 494#4 350#2 350#3 521#0 -525#1 532 521#2 521#3 521#4 521#5 521#6 521#8 521#9 521#10 521#11 521#12 416#1"/>
    </vehicle>
    <vehicle id="2wheeler_3_181" type="moped" depart="18808.00" departLane="best">
        <route edges="1278 -1277 -1282#0 916#1 456 -918 -1437 -1298#2 -1295#2 -1295#1 -1295#0 -1300#1 -1300#0 856#3 856#0 -468#6 -468#5 -468#4 -468#3 -468#2 -468#1 -468#0 1313#1 1423#0 1423#1 1423#2 1423#3 1423#4 1423#5 1423#6 1423#7 497#1 236 494#0 494#1 494#2 494#3 494#4 350#2 350#3 350#4 -349 -95#0 -520#2 -520#1 -520#0 -584#11 -584#10 -584#9 -584#8 -584#7 -584#6 -584#5 -585#2 -585#1 -585#0 -595#4 -595#3 577#0 577#1 -580"/>
    </vehicle>
    <vehicle id="2wheeler_2_72" type="motorcycle" depart="18854.00" departLane="best">
        <route edges="1306#1 -467#1 -467#0 1504 -367#0 894#1 489#2 489#3 489#4 14 -1316#0 231#0 231#1 -491#1 -491#0 -499#2 -499#1 -499#0 522#1 250#3 250#0 581#0 581#1 581#2 581#3 581#4 581#5 581#6 585#2 -584#4 632#0 632#1 623#2 596 447 563#0 563#1 563#2 1337#0 1337#1 1337#2"/>
    </vehicle>
    <vehicle id="2wheeler_3_398" type="moped" depart="18860.00" departLane="best">
        <route edges="-1393#0 -1394#1 1399 1401#1 1400#1 932#0 932#1 1597 216#0 216#1 216#2 216#3 216#4 216#5 216#6 216#7 216#8 -933#3 -933#2 -933#1 -933#0 821#2 -790#5 -790#4 -790#3 -790#2 -790#1 -790#0 1499#3 746#0 746#1 893#1 893#2 893#3 893#4 893#5"/>
    </vehicle>
    <vehicle id="2wheeler_2_7" type="motorcycle" depart="18863.00" departLane="best">
        <route edges="-810 823#1 206 296 312 153 313#0 313#1 193 204#3 204#4 194 198#3 198#0 154 317#0 317#1 71#0 -274#0 862#3 862#4 862#0 705#0 705#1 705#2 -219 1494#2 1498"/>
    </vehicle>
    <vehicle id="2wheeler_2_841" type="motorcycle" depart="18916.00" departLane="best">
        <route edges="-952 -545 646 605 1361#3 1361#4 1361#5 1361#6 1361#7 1353#3 1353#4 -1263#6 -1263#5 -1263#4 -1263#3 -1263#2 -1263#1 -1263#0 855#3 -1340#1 -1340#0 565#0 565#1 565#2 565#3 565#4 565#5 1347#0 1347#1 1347#2 597 596 447 563#0 564#0 564#1 564#2 564#3 564#4 564#5 564#6 240#2 240#3 -416#1 -521#12 -521#11 -521#10 -521#9 -521#8 -521#6 -521#5 -521#4 -521#3 -521#2 -532 525#1 521#1"/>
    </vehicle>
    <vehicle id="2wheeler_3_307" type="moped" depart="18940.00" departLane="best">
        <route edges="-1287 916#1 456 -918 -1437 -1298#2 -1295#2 -1295#1 -1295#0 -1300#1 -1300#0 856#3 856#0 -468#6 -468#5 -468#4 -468#3 -468#2 -468#1 -468#0 1313#1 1423#0 1423#1 1423#2 1423#3 1423#4 1423#5 1423#6 1423#7 497#1 236 494#0 494#1 494#2 494#3 494#4 350#2 350#3 521#0 -525#1 -525#0 520#4 95#1"/>
    </vehicle>
    <vehicle id="2wheeler_2_898" type="motorcycle" depart="18949.00" departLane="best">
        <route edges="291#2 823#0 823#1 913 733#0 733#1 733#2 733#3 733#4 733#5 733#6 733#7 733#8 733#9 733#10 733#11 733#12 733#13 677 738 868#2 102 368#0 368#1 368#2"/>
    </vehicle>
    <vehicle id="2wheeler_2_861" type="moped" depart="18972.00" departLane="best">
        <route edges="-1354#13 -1354#12 -1354#11 -1354#10 -1354#9 -1354#8 -1354#7 -1354#6 -1354#5 -1354#4 -1354#3 -1354#1 -1354#0 565#0 565#1 565#2 565#3 565#4 565#5 1347#0 1347#1 1347#2 864 602 632#3 621 622 620#0 620#1 -693#5 -693#4 -693#3 -693#2 -693#1 -693#0 729#0 729#1 729#2 862#2 862#3 739 884#1 884#2 884#3 884#4 188 198#0"/>
    </vehicle>
    <vehicle id="2wheeler_2_894" type="moped" depart="19042.00" departLane="best">
        <route edges="-1298#2 -1295#2 -1295#1 -1295#0 -1300#1 -1300#0 856#3 856#0 -468#6 -468#5 -468#4 -468#3 -468#2 -468#1 -468#0 1313#1 1423#0 1423#1 1423#2 1423#3 1423#4 1423#5 1423#6 1423#7 497#1 236 494#0 494#1 494#2 494#3 494#4 350#2 350#3 350#4 -349 -95#0 -520#2 -520#1 -520#0 -584#11 -584#10"/>
    </vehicle>
    <vehicle id="2wheeler_2_605" type="moped" depart="19054.00" departLane="best">
        <route edges="565#0 565#1 565#2 565#3 565#4 565#5 1347#0 1347#1 1347#2 864 602 632#3 -619#5 -619#4 -619#3 -619#2 -619#1 -619#0 102 867#0 711 703#2 893#0 893#1 893#2 893#3 893#4 893#5 -714#1 743#0 743#1 6#7 6#0 6#1 6#2 -776 182 -820#2 -820#1 -820#0 1510 900#2 900#3 806#0 890#0 890#1 357#1 357#2 357#3"/>
    </vehicle>
    <vehicle id="2wheeler_3_112" type="moped" depart="19166.00" departLane="best">
        <route edges="1398#7 935#6 300 1592#1 929#0 757 932#1 1597 216#0 216#1 216#2 216#3 216#4 216#5 216#6 216#7 216#8 216#9 216#10 291#1 291#2 291#3 -811#1 -811#0 183 -812#1 -812#0 -1386#4 -1386#3 -1386#2 -1386#1 -1386#0 -1383#3 -1383#2"/>
    </vehicle>
    <vehicle id="2wheeler_3_15" type="motorcycle" depart="19182.00" departLane="best">
        <route edges="1597 216#0 216#1 216#2 216#3 216#4 216#5 216#6 216#7 216#8 216#9 216#10 291#1 291#2 823#0 823#1 913 733#0 733#1 733#2 733#3 733#4 733#5 733#6 733#7 733#8 733#9 733#10 733#11 733#12 733#13 677 738 868#2 619#0 619#1 619#2 619#3 619#4 619#5 621 623#0 623#1 623#2 596 447 563#0 563#1 563#2 1337#0 1337#1 1337#2 1337#3 1337#4 939#0 939#1 565#1 565#2 -599 -1355#2 -1355#1"/>
    </vehicle>
    <vehicle id="2wheeler_3_646" type="motorcycle" depart="19241.00" departLane="best">
        <route edges="-1277 -1282#0 916#1 456 -918 -1437 -1298#2 -1295#2 -1295#1 -1295#0 -1300#1 -1300#0 856#3 856#0 -468#6 -468#5 -468#4 -468#3 -468#2 -468#1 -468#0 1313#1 1423#0 1423#1 1423#2 1423#3 1423#4 1423#5 1423#6 1423#7 497#1 236 494#0 494#1 494#2 494#3 494#4 350#2 350#3 350#4 -349 -95#0 -520#2 -520#1 -520#0 -584#11 -584#10 -584#9 -584#8 -584#7 -584#6 -584#5 -584#4 632#0 632#1 632#2 632#3 -619#5 -619#4"/>
    </vehicle>
    <vehicle id="2wheeler_1_27" type="motorcycle" depart="19275.00" departLane="best">
        <route edges="869#2 -733#12 -733#11 -733#10 720 700 1499#2 1499#3 1499#0 869#0 869#1"/>
    </vehicle>
    <vehicle id="2wheeler_2_963" type="motorcycle" depart="19283.00" departLane="best">
        <route edges="-731#3 -731#2 -731#1 -731#0 -1383#0 -1387#1 -1387#0 930#1 931 -895#5 1381#0 1381#1 1381#2 -368#2 -368#1 -368#0 867#0 711 703#2 893#0 893#1 1495#0 1495#1 1495#2 -715#1"/>
    </vehicle>
    <vehicle id="2wheeler_2_52" type="moped" depart="19340.00" departLane="best">
        <route edges="-1351#4 -1351#3 -1351#2 -1351#1 -1351#0 1364#3 1364#4 134#1 -1382#5 -1382#4 -1382#3 -1382#2 -1382#1 -1383#3 -1383#2 -1383#1 1385 731#1 731#2 731#3 731#4 731#5 733#9 720 700 1499#2 1499#3 746#0"/>
    </vehicle>
    <vehicle id="2wheeler_3_328" type="moped" depart="19415.00" departLane="best">
        <route edges="-1277 -1282#0 916#1 456 -918 -1437 -1298#2 -1295#2 -1295#1 -1295#0 -1300#1 -1300#0 856#3 856#0 -468#6 -468#5 -468#4 -468#3 -468#2 -468#1 -468#0 1313#1 1423#0 1423#1 1423#2 1423#3 1423#4 1423#5 1423#6 1423#7 497#1 236 494#0 494#1 494#2 494#3 494#4 350#2 350#3 350#4 -349 -95#0 -520#2 -520#1 -520#0 -584#11 -584#10 -584#9 -584#8 -584#7 -584#6 -584#5 -584#4 632#0 632#1 632#2 632#3 -619#5 -619#4 -619#3 -624#3 -624#2 -624#0 -925 -923 -1354#17 -1354#16 -1354#15 -1354#14 -1354#13 -1354#12 -1354#11 -1354#10 -1354#9 -1354#8 -1354#7 -1354#6 -1354#5 -1354#4 -1354#3 -1354#1 -1354#0 1340#0 1340#1"/>
    </vehicle>
    <vehicle id="2wheeler_2_30" type="motorcycle" depart="19489.00" departLane="best">
        <route edges="-1269#7 -1269#6 -1269#5 -1269#4 -1269#3 -1269#2 -1269#1 -1269#0 -1386#0 -1383#3 -1383#2 -1383#1 1385 731#1 731#2 731#3 731#4 731#5 733#9 733#10 733#11 733#12 733#13 677 738 868#2 619#0 619#1 619#2 619#3 619#4 619#5 621 622 620#0 -606#2 -606#1 -872#1"/>
    </vehicle>
    <vehicle id="2wheeler_2_455" type="moped" depart="19528.00" departLane="best">
        <route edges="240#2 241#0 241#1 -569#0 -584#11 -584#10 -584#9 -584#8 -584#7 -584#6 -584#5 -584#4 -584#3 -584#2 -584#1 620#0 620#1 -693#5 -693#4 -693#3 -693#2 -693#1 -693#0 729#0 729#1 729#2 862#2 862#3 739 884#1 884#2 884#3 884#4 884#5 884#6 884#7 884#8 884#11 883#1 883#2 -740#2 -740#0 6#6 6#7 6#0 6#1 6#2 -776 182 -820#2 -820#1 -820#0 1510 900#2 900#3 806#0 890#0 890#1 357#1 357#2 290#0 290#1 290#2"/>
    </vehicle>
    <vehicle id="2wheeler_3_308" type="motorcycle" depart="19549.00" departLane="best">
        <route edges="1593 1590#1 1592#1 929#0 757 932#1 1597 216#0 216#1 216#2 216#3 216#4 216#5 216#6 216#7 216#8 -933#3 -933#2 -933#1 -933#0 -821#1 -821#0 294#0 294#1 294#2 861#0 861#1 861#2 313#1 193 204#3 204#4 194 198#3 -188 -750#2 -724#0 884#2"/>
    </vehicle>
    <vehicle id="2wheeler_1_375" type="motorcycle" depart="19578.00" departLane="best">
        <route edges="-71#0 361#0 361#1 197 198#2 198#3 -188 884#5 884#6 884#7 884#8 -744#1 -744#0 -1495#3 -1495#2 -1495#1 -1495#0 893#2 893#3 893#4 893#5 912#0 912#1 751#0 751#1 751#2 751#3 751#4 751#5 751#6 -790#4 -790#3 -790#2 -790#1 -790#0"/>
    </vehicle>
    <vehicle id="2wheeler_2_56" type="moped" depart="19643.00" departLane="best">
        <route edges="1353#1 1353#2 1353#3 1353#4 -1263#6 -1263#5 -1263#4 -1265#11 -1265#10 -1265#9 -1265#8 -1265#7 -1265#6 -1265#5 -1265#4 -1265#2 -1265#1 -1265#0 -1356#2 -1356#0 1354#15 1354#16 1354#17 923 925 624#0 624#2 624#3 -619#2 -619#1 -619#0 102 867#0 711 703#2 893#0 893#1 1495#0 1495#1 1495#2 1495#3 744#0 744#1 884#11 883#1 883#2 883#3 -736#3 -736#2 -736#1 -736#0 -694 681 -691 692 -678 -681 694 736#0 736#1 736#2"/>
    </vehicle>
    <vehicle id="2wheeler_3_223" type="motorcycle" depart="19651.00" departLane="best">
        <route edges="-1282#0 916#1 456 -918 -1437 -1298#2 -1295#2 -1295#1 -1295#0 -1300#1 -1300#0 856#3 856#0 -468#6 -468#5 -468#4 -468#3 -468#2 -468#1 -468#0 1313#1 1423#0 1423#1 1423#2 1423#3 1423#4 1423#5 1423#6 1423#7 497#1 236 494#0 494#1 494#2 494#3 494#4 350#2 350#3 350#4 -349 -95#0 -520#2 -520#1 -520#0 -584#11 -584#10 -584#9 -584#8 -584#7 -584#6 -584#5 -584#4 -584#3 -584#2 -584#1 620#0 620#1 -693#5 -693#4 -693#3 -693#2 -693#1 -693#0 729#0 729#1 729#2 862#2 862#3 739 884#1 884#2 884#3 884#4 884#5 884#6 884#7 884#8 884#11 883#1 883#2 883#3 883#4 697 737#0 737#1 737#2 737#3 280#0 280#1"/>
    </vehicle>
    <vehicle id="2wheeler_2_332" type="motorcycle" depart="19672.00" departLane="best">
        <route edges="1258 1259#1 1259#2 1303#0 1301#0 1301#1 1260#1 1260#2 1260#3 1260#4 1313#1 1423#0 1423#1 1423#2 1423#3 1423#4 1423#5 1423#6 1423#7 497#1 236 494#0 494#1 494#2 494#3 494#4 350#2 350#3 350#4 -349 -95#0 -520#2 -520#1 -520#0 -584#11 -584#10 -584#9 -584#8 -584#7 -584#6 -584#5 -584#4 -584#3 -584#2 -584#1 620#0 620#1 -693#5 -693#4 -693#3 -693#2 -693#1 -693#0 729#0 729#1 729#2 862#2 862#3 739 884#1 884#2 884#3 884#4 884#5 884#6 884#7 884#8 884#11 883#1 883#2 883#3 -736#3 -736#2 -736#1 -736#0 -694"/>
    </vehicle>
    <vehicle id="2wheeler_2_1003" type="motorcycle" depart="19692.00" departLane="best">
        <route edges="-1312#0 -1311#0 -533#0 -1434#8 -1434#7 -1434#6 1328#0 1328#1 1328#2 -544#1 -544#0 -1325#5 -1325#4 -1325#3 -1325#2 -1325#1 -1325#0 -1324#0 -1326#0 -1353#5 -1263#6 -1263#5 -1263#4 -1265#11 -1265#10 -1265#9 -1265#8 -1265#7 -1265#6 -1265#5 -1265#4 -1265#2 -1265#1 -1265#0 -1356#2 -1356#0 1354#15 1354#16 1354#17 923 925 624#0 624#2 624#3 -619#2 -619#1 -619#0 102 867#0 711 703#2 893#0"/>
    </vehicle>
    <vehicle id="2wheeler_3_189" type="moped" depart="19721.00" departLane="best">
        <route edges="1394#1 1394#2 1393#1 1393#2 1393#3 1393#4 1393#5 1393#6 1393#7 1375#1 1366#1 652#0 -654#2 -654#1 -654#0 1332#0 1332#1 1512#0 1512#1 1512#2 1333 1328#1 1328#2 -544#1 -544#0 -1325#5 -1325#4 -1325#3 -1325#2 -1325#1 -1325#0 -1324#0 -1326#0 -1353#5 -1263#6 -1263#5 -1263#4 -1263#3 -1263#2 -1263#1 -1263#0 855#3 -1340#1 -1340#0 565#0 565#1 565#2 565#3 565#4 565#5 1347#0 1347#1 1347#2 597 596 447 563#0 564#0"/>
    </vehicle>
    <vehicle id="2wheeler_2_382" type="motorcycle" depart="19738.00" departLane="best">
        <route edges="996 -543#0 1328#2 -544#1 -544#0 -1325#5 -1325#4 -1325#3 -1325#2 -1325#1 -1325#0 -1324#0 -1326#0 -1353#5 -1263#6 -1263#5 -1263#4 -1265#11 -1265#10 -1265#9 -1265#8 -1265#7 -1265#6 -1265#5 -1265#4 -1265#2 -1265#1 -1265#0 -1356#2 -1356#0 1354#15 1354#16 1354#17 923 -1502#3"/>
    </vehicle>
    <vehicle id="2wheeler_1_311" type="moped" depart="19773.00" departLane="best">
        <route edges="-289#3 -289#2 -289#1 -289#0 -793#2 -793#1 -793#0 908 907#3 -822#1 -807#2 -807#1 -807#0 820#0 820#1 820#2 -182 776 6#3 6#4"/>
    </vehicle>
    <vehicle id="2wheeler_3_659" type="moped" depart="19835.00" departLane="best">
        <route edges="-1287 916#1 456 -918 -1437 -1298#2 -1295#2 -1295#1 -1295#0 -1300#1 -1300#0 856#3 856#0 -468#6 -468#5 -468#4 -468#3 -468#2 -468#1 -468#0 1313#1 1423#0 1423#1 1423#2 1423#3 1423#4 1423#5 1423#6 1423#7 497#1 236 494#0 494#1 494#2 494#3 494#4 350#2 350#3 350#4 -349 -95#0 -520#2 -520#1 -520#0 -584#11 -584#10 -584#9 -584#8 -584#7 -584#6 -584#5 -584#4 632#0 632#1 632#2 632#3 -619#5 -619#4 -619#3 -619#2 -619#1 -619#0 102 867#0 711 703#2 893#0 -709#1 715#0 715#1 -1495#2 -1495#1 -1495#0"/>
    </vehicle>
    <vehicle id="2wheeler_2_956" type="moped" depart="19868.00" departLane="best">
        <route edges="1416 -1418#26 -1418#25 -1418#24 -1418#23 -1418#21 -1418#20 -1418#19 -1418#18 -1418#17 -1418#16 -1418#13 -1418#12 -1418#11 -1418#10 -1418#9 -1418#8 -1418#7 -1418#6 -1418#5 -1418#3 -1418#2 -1418#1 -1418#0 312 153 313#0 313#1 193 204#3 204#4 194 198#3 -188 -750#2 -750#1"/>
    </vehicle>
    <vehicle id="2wheeler_2_818" type="moped" depart="19883.00" departLane="best">
        <route edges="104 -1409#0 1407#0 1407#1 1407#2 1407#3 1407#4 1404#2 1404#3 1404#4 1404#5 -1418#11 -1418#10 936#0 936#1 936#2 936#3 936#4 936#5 936#6 936#7 294#2 294#3 821#0 821#1 933#0 933#1 933#2 933#3 216#9 216#10 291#1 291#2 291#3 -811#1 -811#0 183 -812#1 -812#0 755#0 755#1 755#2 -283"/>
    </vehicle>
    <vehicle id="2wheeler_2_498" type="moped" depart="19951.00" departLane="best">
        <route edges="-1 312 153 313#0 313#1 193 204#3 204#4 194 198#3 -188 884#5 884#6 884#7 884#8 -744#1 -744#0 -1495#3 -1495#2 -1495#1 -1495#0 893#2 893#3 893#4 893#5 912#0 912#1 751#0 751#1 751#2 751#3 742#0 742#1"/>
    </vehicle>
    <vehicle id="2wheeler_2_315" type="moped" depart="19961.00" departLane="best">
        <route edges="703#1 703#2 868#0 868#1 868#2 619#0 619#1 619#2 619#3 619#4 619#5 621 623#0 623#1 623#2 596 447 563#0 564#0 564#1 564#2 564#3 564#4 564#5 1339#0 1339#1 1339#2 1339#3"/>
    </vehicle>
    <vehicle id="2wheeler_3_540" type="motorcycle" depart="19996.00" departLane="best">
        <route edges="-448 456 -918 -1437 -1298#2 -1295#2 -1295#1 -1295#0 -1300#1 -1300#0 856#3 856#0 -468#6 -468#5 -468#4 -468#3 -468#2 -468#1 -468#0 1313#1 1423#0 1423#1 1423#2 1423#3 1423#4 1423#5 1423#6 1423#7 497#1 236 494#0 494#1 494#2 494#3 494#4 350#2 350#3 350#4 -349 -95#0 -520#2 -520#1 -520#0 -584#11 -584#10 -584#9 -584#8 -584#7 -584#6 -584#5 -584#4 -584#3 -584#2 -584#1 620#0 620#1 -693#5 -693#4 -693#3 -693#2 -693#1 -693#0 729#0 729#1 729#2 862#2 862#3 739 884#1 884#2 884#3 884#4 188 198#0 198#1 198#2 -194 204#1 204#2 204#3 204#4"/>
    </vehicle>
    <vehicle id="2wheeler_1_434" type="motorcycle" depart="20004.00" departLane="best">
        <route edges="-1495#0 893#2 893#3 893#4 893#5 -714#1 743#0 743#1 6#7 -8 204#4 194 198#3 198#0 154 317#0 317#1 71#0 -274#0 862#3 862#4 862#0 862#1 862#2 274#0 -71#0 361#0"/>
    </vehicle>
    <vehicle id="2wheeler_2_221" type="moped" depart="20081.00" departLane="best">
        <route edges="-1387#0 930#1 931 -895#5 1381#0 1381#1 1381#2 -368#2 -368#1 -368#0 867#0 711 703#2 893#0 893#1 893#2 893#3 893#4 893#5 912#0 912#1 751#0 -710#1 -710#0 -742#4 -742#3 -742#1"/>
    </vehicle>
    <vehicle id="2wheeler_2_1164" type="motorcycle" depart="20165.00" departLane="best">
        <route edges="-1328#0 -1434#5 -1434#4 -1434#3 -1434#2 -1434#1 -1434#0 -650 -1366#2 652#0 -654#2 -654#1 -654#0 1332#0 1332#1 1512#0 1512#1 1261#0 1261#1 1261#2 1261#3 1261#4 1261#5 1261#6 1261#7 1261#8 1261#9 1261#10 1261#11 1261#12 -1269#7 -1269#6 -1269#5 -1269#4 -1269#3 -1269#2 -1269#1 -1269#0 -1386#0 -1383#3 -1383#2 -1383#1 1385 731#1 731#2 731#3 731#4 731#5 733#9 720 700 1499#2 1499#3 746#0 746#1 893#1 1495#0 1495#1 1495#2 1495#3 744#0 744#1 884#11 883#1 883#2 883#3 -736#3 -736#2 -736#1 -736#0 -694 681 678 718 722 -725 -706 -788 -783 -789 -797"/>
    </vehicle>
    <vehicle id="2wheeler_2_1011" type="moped" depart="20174.00" departLane="best">
        <route edges="95#1 350#1 350#2 350#3 350#4 -349 -95#0 -520#2 -520#1 -520#0 -584#11 -584#10 -584#9 -584#8 -584#7 -584#6 -584#5 -584#4 -584#3 -584#2 -584#1 620#0 620#1 -693#5 -693#4 -693#3 -693#2 -693#1 -693#0 729#0 729#1 729#2 862#2 862#3 739 884#1 884#2 884#3 884#4 884#5 884#6 884#7 884#8 884#11 883#1 883#2 883#3 883#4 697 737#0 737#1 737#2 737#3 280#0"/>
    </vehicle>
    <vehicle id="2wheeler_2_997" type="motorcycle" depart="20177.00" departLane="best">
        <route edges="-1422#8 -1422#7 -1422#6 -1422#5 -1422#4 -1422#3 -1422#2 -1422#1 -1422#0 -1418#26 -1418#25 -1418#24 -1418#23 -1418#21 -1418#20 -1418#19 -1418#18 -1418#17 -1418#16 -1418#13 -1418#12 -1418#11 -1418#10 -1418#9 -1418#8 -1418#7 -1418#6 -1418#5 -1418#3 -1418#2 -1418#1 -1418#0 312 153 313#0 313#1 193 204#3 204#4 194 198#3 -188 884#5 884#6 884#7 884#8 -744#1 -744#0 -1495#3 -1495#2 696"/>
    </vehicle>
    <vehicle id="2wheeler_1_174" type="motorcycle" depart="20179.00" departLane="best">
        <route edges="359#3 359#4 359#5 359#0 359#1 440#0 440#2 440#3 440#6 440#8 571#4 587#3 587#4 165 -173 -679 -174 -719 -175 -713 176 277 -274#0 862#3 739 884#1 884#2 884#3 884#4 884#5 884#6 884#7 884#8 884#11 883#1 883#2 883#3 883#4 697 737#0 737#1 737#2"/>
    </vehicle>
    <vehicle id="2wheeler_3_156" type="moped" depart="20215.00" departLane="best">
        <route edges="916#1 456 -918 -1437 -1298#2 -1295#2 -1295#1 -1295#0 -1300#1 -1300#0 856#3 856#0 -468#6 -468#5 -468#4 -468#3 -468#2 -468#1 -468#0 1313#1 1423#0 1423#1 1423#2 1423#3 1423#4 1423#5 1423#6 1423#7 497#1 236 494#0 494#1 494#2 494#3 494#4 350#2 350#3 350#4 -349 -95#0 -520#2 -520#1 -520#0 -584#11 -584#10 -584#9 -584#8 -584#7 -584#6 -584#5 -584#4 632#0 632#1 632#2 632#3 -619#5 -619#4 -619#3 -619#2 -619#1 -619#0 102 867#0 867#1 -733#13 -869#2 -869#1 -869#0 1499#1 1499#2 790#0 790#1 790#2 790#3 790#4 790#5 790#6 -821#1 -821#0 294#0 294#1"/>
    </vehicle>
    <vehicle id="2wheeler_2_566" type="moped" depart="20226.00" departLane="best">
        <route edges="-569#0 -584#11 -584#10 -584#9 -584#8 -584#7 -584#6 -584#5 -584#4 -584#3 -584#2 -584#1 620#0 620#1 -693#5 -693#4 -693#3 -693#2 -693#1 -693#0 729#0 729#1 729#2 862#2 862#3 739 884#1 884#2 884#3 884#4 188 198#0 154 317#0 1503 -192 -1501"/>
    </vehicle>
    <vehicle id="2wheeler_1_231" type="motorcycle" depart="20282.00" departLane="best">
        <route edges="807#2 -822#0 900#3 900#4 803#0 803#1 803#2 794#5 794#0 794#1 794#2 1594 180#0 180#1 891 735#2 735#3 735#4 735#5 862#0 862#1 -729#2 -729#1"/>
    </vehicle>
    <vehicle id="2wheeler_2_280" type="motorcycle" depart="20283.00" departLane="best">
        <route edges="-1351#3 -1351#2 -1351#1 -1351#0 1364#3 1364#4 -971#0 -638#0 -1364#3 1351#0 1351#1 1351#2 1351#3 1351#4 1351#5 1351#6 1351#7 1351#8 1351#9 -1265#2 -1265#1 -1265#0 -1356#2 -1356#0 1354#15 1354#16 1354#17 923 925 624#0 624#2 624#3 619#3 619#4 619#5 621 622 584#1 584#2 584#3 584#4 584#5"/>
    </vehicle>
    <vehicle id="2wheeler_1_125" type="motorcycle" depart="20336.00" departLane="best">
        <route edges="867#1 -733#13 -733#12 -733#11 -733#10 -733#9 -733#8 -733#7 -733#6 -733#5 -733#4 -733#3 -733#2 -733#1 -733#0 914 -823#1 810"/>
    </vehicle>
    <vehicle id="2wheeler_2_712" type="motorcycle" depart="20344.00" departLane="best">
        <route edges="-1383#2 -1383#1 1385 731#1 731#2 731#3 731#4 731#5 733#9 733#10 733#11 733#12 733#13 677 738 868#2 619#0 685#0 685#1 685#2 -455 -863#2 -863#1 -863#0 729#1 729#2 862#2 274#0 71#1"/>
    </vehicle>
    <vehicle id="2wheeler_2_639" type="motorcycle" depart="20355.00" departLane="best">
        <route edges="-376 -1428#1 -1428#0 1292 1301#0 1301#1 1260#1 1260#2 1260#3 1260#4 1313#1 1423#0 1423#1 1423#2 1423#3 1423#4 1423#5 1423#6 1423#7 497#1 236 494#0 494#1 494#2 494#3 494#4 350#2 350#3 350#4 -349 -95#0 -520#2 -520#1 -520#0 -584#11 -584#10 -584#9 -584#8 -584#7 -584#6 -584#5 -584#4 -584#3 -584#2 -584#1 620#0 620#1 -693#5 -693#4 -693#3 -693#2 -693#1 -693#0 729#0 729#1 729#2 862#2 862#3 739 884#1 724#0 -750#1 -750#0 735#4 -730"/>
    </vehicle>
    <vehicle id="2wheeler_3_605" type="motorcycle" depart="20442.00" departLane="best">
        <route edges="668#4 668#5 668#6 668#7 668#8 -307#0 306 338#1 -1377#3 -1377#2 -1377#1 -1377#0 1393#6 1393#7 1375#1 1366#1 652#0 -654#2 -654#1 -654#0 1332#0 1332#1 1512#0 1512#1 1512#2 1333 1328#1 1328#2 -544#1 -544#0 -1325#5 -1325#4 -1325#3 -1325#2 -1325#1 -1325#0 -1324#0 -1326#0 -1353#5 -1263#6 -1263#5 -1263#4 -1265#11 -1265#10 -1265#9 -1265#8 -1265#7 -1265#6 -1265#5 -1265#4 -1265#2 -1265#1 -1265#0 -1356#2 -1356#0 1354#15 1354#16 1354#17 923 925 624#0 624#2 624#3 619#3 619#4 619#5 621 622 620#0 -606#2 -606#1 -606#0 590#1"/>
    </vehicle>
    <vehicle id="2wheeler_2_659" type="motorcycle" depart="20452.00" departLane="best">
        <route edges="-1309#2 -1309#1 -1309#0 476#1 1315#1 1315#2 1315#3 1315#4 1315#5 1315#6 1315#7 1315#8 1315#9 1315#10 1315#11 1315#12 1315#13 1315#14 855#1 855#2 855#3 -1340#1 -1340#0 565#0 565#1 565#2 565#3 565#4 565#5 1347#0 1347#1 1347#2 864 602 632#3 621 622 620#0 620#1 -863#5 -863#4"/>
    </vehicle>
    <vehicle id="2wheeler_1_140" type="motorcycle" depart="20453.00" departLane="best">
        <route edges="893#0 -746#1 -746#0 1499#0 869#0 869#1 869#2 733#13 677 738 868#2 619#0 619#1 619#2 619#3 619#4 619#5 621 623#0 623#1 623#2 596 447 563#0 563#1 563#2 1346#0 1346#1 1346#2"/>
    </vehicle>
    <vehicle id="2wheeler_2_1119" type="motorcycle" depart="20489.00" departLane="best">
        <route edges="-1382#5 -1382#4 -1382#3 -1382#2 -1382#1 -1383#3 -1383#2 -1383#1 1385 731#1 731#2 731#3 731#4 731#5 733#9 720 700 1499#2 790#0 790#1 790#2 790#3 790#4 -751#6 -751#5 -751#4 -751#3"/>
    </vehicle>
    <vehicle id="2wheeler_2_1136" type="moped" depart="20489.00" departLane="best">
        <route edges="-922#0 -1265#4 -1351#9 -1351#8 -1351#7 -1351#6 -1351#5 -1351#4 -1351#3 -1351#2 -1351#1 -1351#0 1364#3 1364#4 134#1 -1382#5 -1382#4 -1382#3 -1382#2 -1382#1 -1382#0 1386#1 1386#2 1386#3 1386#4 755#0 755#1 755#2 -283 -755#3 -755#2 -755#1 -755#0"/>
    </vehicle>
    <vehicle id="2wheeler_3_392" type="motorcycle" depart="20563.00" departLane="best">
        <route edges="-441 -171 211#0 304 436 214#1 171 774 286 1597 216#0 216#1 216#2 216#3 216#4 216#5 216#6 216#7 216#8 -933#3 -933#2 -933#1 -933#0 -821#1 -821#0 294#0 294#1 294#2 861#0 861#1 861#2 313#1 193 204#3 204#4 194 198#3 -188 -750#2 -724#0"/>
    </vehicle>
    <vehicle id="2wheeler_3_563" type="motorcycle" depart="20594.00" departLane="best">
        <route edges="1280 -1282#0 916#1 456 -918 -1437 -1298#2 -1295#2 -1295#1 -1295#0 -1300#1 -1300#0 856#3 856#0 856#1 -1257#4 -1257#3 -1257#2 -1257#1 -1257#0 -1304#3 470 -493#4 -493#3 -493#2 -493#1 -493#0 231#1 -491#1 -491#0 -499#2 -499#1 -499#0 522#1 250#3 250#0 250#1 -586#1 587#0 587#1 587#2 587#3 571#0 254 -579 -219"/>
    </vehicle>
    <vehicle id="2wheeler_3_611" type="moped" depart="20602.00" departLane="best">
        <route edges="187 849 1419#1 185 1276 186 -1418#27 -1418#26 -1418#25 -1418#24 -1418#23 -1418#21 -1418#20 -1418#19 -1418#18 -1418#17 -1418#16 -1418#13 -1418#12 -1418#11 -1418#10 936#0 936#1 936#2 936#3 936#4 936#5 936#6 936#7 294#2 294#3 821#0 821#1 821#2 -790#5 -790#4 -790#3 -790#2 -790#1 -790#0 1499#3 1499#0 1499#1 -700 -720 733#10 276 720 700"/>
    </vehicle>
    <vehicle id="2wheeler_1_14" type="moped" depart="20621.00" departLane="best">
        <route edges="586#1 250#2 250#3 250#0 581#0 581#1 581#2 581#3 581#4 581#5 581#6 -585#1 -585#0 595#5 566#0 590#0 590#1 590#2 -693#1 -693#0 729#0 729#1 729#2 862#2 862#3"/>
    </vehicle>
    <vehicle id="2wheeler_2_499" type="motorcycle" depart="20622.00" departLane="best">
        <route edges="-1322#5 -1322#4 -1322#3 -1322#2 -1322#1 -1322#0 415#1 415#2 415#3 415#4 1322#0 1322#1 1322#2 1322#3 1322#4 1322#5 1322#6 1322#7 1324#2 1324#3 1324#4 1310#0 1310#1 190#0 190#1 -1313#4 -1313#3 -1313#2 1423#0 1423#1 1423#2 1423#3 1423#4 1423#5 1423#6 1423#7 87 -1319#2 -1319#1 -1319#0 -490#0 231#0 231#1 -491#1 -491#0"/>
    </vehicle>
    <vehicle id="2wheeler_2_401" type="moped" depart="20674.00" departLane="best">
        <route edges="476#1 1315#1 1315#2 1315#3 1315#4 1315#5 1315#6 1315#7 1315#8 1315#9 1315#10 1315#11 1315#12 1315#13 1315#14 855#1 855#2 1263#0 1263#1 1263#2 1263#3 -1265#11 -1265#10 -1265#9 -1265#8 -1265#7 -1265#6 -1265#5 922#0 922#2"/>
    </vehicle>
    <vehicle id="2wheeler_3_543" type="moped" depart="20678.00" departLane="best">