<?xml version="1.0" encoding="UTF-8"?>

<!-- generated on Thu May 24 10:07:27 2018 by Eclipse SUMO duarouter Version 629ca040dd
<configuration xmlns:xsi="http://www.w3.org/2001/XMLSchema-instance" xsi:noNamespaceSchemaLocation="http://sumo.dlr.de/xsd/duarouterConfiguration.xsd">

    <input>
        <net-file value="../scenario/in/most.net.xml"/>
        <additional-files value="../scenario/in/add/most.busstops.add.xml,../scenario/in/add/most.trainstops.add.xml,../scenario/in/add/most.parkings.add.xml,../scenario/in/add/basic.vType.xml"/>
        <route-files value="out/most.passenger.trips.xml"/>
    </input>

    <output>
        <output-file value="../scenario/in/route/most.passenger.rou.xml"/>
        <vtype-output value="/dev/null"/>
        <alternatives-output value="../scenario/in/route/most.passenger.rou.alt.xml"/>
    </output>

    <processing>
        <ignore-errors value="true"/>
        <max-alternatives value="5"/>
        <remove-loops value="false"/>
        <repair value="false"/>
        <repair.from value="false"/>
        <repair.to value="false"/>
        <routing-threads value="4"/>
        <routing-algorithm value="dijkstra"/>
    </processing>

    <time>
        <begin value="0"/>
        <end value="84600"/>
    </time>

</configuration>
-->

<routes xmlns:xsi="http://www.w3.org/2001/XMLSchema-instance" xsi:noNamespaceSchemaLocation="http://sumo.dlr.de/xsd/routes_file.xsd">
    <vehicle id="passenger_GW1_427" type="passenger3" depart="18024.00" departLane="best">
        <route edges="420 148 1563 149 1561 164 422 83 419#0 431 469 415#3 415#4 1309#0 1309#1 1309#2 1309#3 1309#4 1309#5 1309#6 1309#7 -1311#1 -1311#0 -138 -1313#1 -1313#0 -139 -1340#5 -1250#5 -1250#4 -1250#3 -1250#2 -1250#1 -1250#0 850#3 -1327#1 -1327#0 563#0 563#1 563#2 563#3 563#4 563#5 1334#0 1334#1 1334#2 595 594 447 561#0 562#0 562#1 562#2 562#3 562#4 562#5 562#6 -416#1 -520#9 -520#8 -522"/>
        <stop parkingArea="22500" duration="43200.00"/>
    </vehicle>
    <vehicle id="passenger_2_654" type="passenger2b" depart="18026.00" departLane="best">
        <route edges="1338#3 1338#4 1338#5 1338#6 1338#7 1338#8 1338#9 -1252#2 -1252#1 -1252#0 -1343#1 -1343#0 1341#14 1341#15 1341#16 918 920 622#0 622#1 622#2 622#3 696 683#2 683#3 632 580 691#3 691#4 691#5"/>
    </vehicle>
    <vehicle id="passenger_GW1_539" type="passenger1" depart="18038.00" departLane="best">
        <route edges="1406 196 844 145 1405#0 1405#1 194 1263 195 -1404#27 -1404#26 -1404#25 -1404#24 -1404#23 -1404#21 -1404#20 -1404#19 -1404#18 -1404#17 -1404#16 -1404#13 -1404#12 -1404#11 -1404#10 -1404#9 -1404#8 -1404#7 -1404#6 -1404#5 -1404#3 -1404#2 -1404#1 -1404#0 315 162 316#0 316#1 201 211#3 211#4 211#1 210"/>
    </vehicle>
    <vehicle id="passenger_1_72" type="passenger1" depart="18090.00" departLane="best">
        <route edges="-787#1 -787#0 1484#3 743#0 743#1 888#1 1480#0 1480#1 1480#2 1480#3 741#0 741#1 879#11 878#1 878#2 878#3 878#4 695 734#0 734#1 734#2 734#3 734#4 285 705#0 319#0"/>
    </vehicle>
    <vehicle id="passenger_2_708" type="passenger1" depart="18105.00" departLane="best">
        <route edges="1369#3 -1368#0 1372#2 1372#3 1372#4 752#0 752#1 752#2 752#3 752#4 752#5 752#6 730#3 730#4 730#5 730#6 730#7 730#8 717 698 1484#2 1484#3 743#0 743#1 -707#1 712#0 712#1 -1480#2 -1480#1"/>
    </vehicle>
    <vehicle id="passenger_2_991" type="passenger2a" depart="18107.00" departLane="best">
        <route edges="1410#0 -445 -661 -825#0 1361#1 650#0 -652#2 -652#1 -652#0 1319#0 1319#1 1494#0 1494#1 1494#2 1320 1315#1 1315#2 -542#1 -542#0 -1312#5 -1312#4 -1312#3 -1312#2 -1312#1 -1312#0 137 1314 1311#1 1311#2 1311#3 1311#4 -134 1297#0 1297#1 133 475 199#0 199#1 -1300#4 -1300#3 -1300#2 1408#0 1408#1 1408#2 1408#3 1408#4 1408#5 1408#6 1408#7 97 -1306#2 -1306#1 -1306#0 99 -490#1 1303#0 1303#1 1303#2 98 355#0 355#1 355#2 360#1 360#2 360#3 360#4 -240#1 361"/>
    </vehicle>
    <vehicle id="passenger_1_437" type="passenger2b" depart="18111.00" departLane="best">
        <route edges="728#3 728#4 728#5 730#8 730#9 730#10 730#11 675 112 701#0 735"/>
    </vehicle>
    <vehicle id="passenger_1_795" type="passenger2a" depart="18127.00" departLane="best">
        <route edges="857#2 857#3 736 879#1 879#2 879#3 879#4 879#5 879#6 879#7 879#8 879#11 878#1 878#2 878#3 878#4 695 734#0"/>
        <stop parkingArea="22457" duration="43200.00"/>
    </vehicle>
    <vehicle id="passenger_GW2_725" type="passenger1" depart="18131.00" departLane="best">
        <route edges="-1388 144 1387#0 1387#1 1386#1 926#0 926#1 117 1259 1578 223#0 223#1 223#2 223#3 223#4 223#5 223#6 223#7 223#8 -927#3 -927#2 -927#1 -927#0 -816#1 -816#0 856#0 856#1 856#2 316#1 201 211#3 211#4 202 205#3 -197 -747#2 -747#1 282#1"/>
    </vehicle>
    <vehicle id="passenger_GW1_722" type="passenger1" depart="18142.00" departLane="best">
        <route edges="420 148 1563 149 1561 164 422 83 419#0 431 469 415#3 415#4 1309#0 1309#1 1309#2 1309#3 1309#4 1309#5 1309#6 1309#7 -1311#1 -1311#0 -138 -1313#1 -1313#0 -139 -1340#5 -1250#5 -1250#4 -1250#3 -1250#2 -1250#1 -1250#0 850#3 -1327#1 -1327#0 563#0 563#1 563#2 563#3 563#4 563#5 1334#0 1334#1 1334#2 595 594 447 561#0 561#1"/>
    </vehicle>
    <vehicle id="passenger_2_1884" type="passenger1" depart="18148.00" departLane="best">
        <route edges="-562#1 -562#0 561#1 561#2 1333#0 1333#1 1333#2 1333#3 1334#0 1334#1 1334#2 595 630#2 630#3 -617#5 -617#4 -617#3 -617#2 -617#1 -617#0 111 862#0 709 701#2 888#0 888#1 1480#0 1480#1 1480#2 1480#3 741#0 741#1 879#11 878#1 878#2 -737#2 -737#0 15#6 15#7 15#0 16 887 316#0 316#1 201"/>
    </vehicle>
    <vehicle id="passenger_3_2568" type="passenger1" depart="18150.00" departLane="best">
        <route edges="-1274 127 448 911#1 456 -913 -1422 -1285#2 -1282#2 -1282#1 -1282#0 -1287#1 -1287#0 851#3 851#0 -468#6 -468#5 -468#3 -468#2 -468#1 -468#0 1300#1 1408#0 1408#1 1408#2 1408#3 1408#4 1408#5 1408#6 1408#7 497#1 243 494#0 494#1 494#2 494#3 494#4 351#2 351#3 351#4 -350 -105 -519#3 -519#2 -519#1 -519#0 -582#10 -582#9 -582#8 -582#7 -582#6 -582#5 -582#4 -582#3 -582#2 -582#1 618#0 618#1 -691#5 -691#4 -691#3 -691#2 -691#0 726#0 726#1 726#2 857#2 857#3 736 879#1 879#2 879#3 879#4 879#5 879#6 879#7 879#8 -1194#2 -1194#1 -13#1 -13#0 -684 -12"/>
        <stop parkingArea="22452" duration="43200.00"/>
    </vehicle>
    <vehicle id="passenger_3_2726" type="passenger2a" depart="18151.00" departLane="best">
        <route edges="-1264 -1269#0 911#1 456 -913 -1422 -1285#2 -1282#2 -1282#1 -1282#0 -1287#1 -1287#0 851#3 851#0 -468#6 -468#5 -468#3 -468#2 -468#1 -468#0 1300#1 1408#0 1408#1 1408#2 1408#3 1408#4 1408#5 1408#6 1408#7 497#1 243 494#0 494#1 494#2 494#3 494#4 351#2 351#3 351#4 -350 -105 -519#3 -519#2 -519#1 -519#0 -582#10 -582#9 -582#8 -582#7 -582#6 -582#5 -582#4 -582#3 -582#2 -582#1 618#0 618#1 -691#5 -691#4 -691#3 -691#2 -691#0 726#0 726#1 726#2 857#2 857#3 736 879#1 879#2 879#3 879#4 879#5 879#6 879#7 879#8 879#11 878#1 878#2 878#3 -733#3 -733#2 -733#1 -733#0 -692 777 779 776 -778"/>
    </vehicle>
    <vehicle id="passenger_3_1549" type="passenger2b" depart="18162.00" departLane="best">
        <route edges="-448 -87 1274 456 -913 -1422 -1285#2 -1282#2 -1282#1 -1282#0 -1287#1 -1287#0 851#3 851#0 -468#6 -468#5 -468#3 -468#2 -468#1 -468#0 1300#1 1408#0 1408#1 1408#2 1408#3 1408#4 1408#5 1408#6 1408#7 497#1 243 494#0 494#1 494#2 494#3 494#4 351#2 351#3 351#4 -350 -105 -519#3 -519#2 -519#1 -519#0 -582#10 -582#9 -582#8 -582#7 -582#6 -582#5 -582#4 630#1 630#2 630#3 -617#5 -617#4 -617#3 -617#2 -617#1 -617#0 111 862#0 862#1 -730#11 -730#10 -730#9 -730#8 -730#7 -730#6 -730#5 -730#4 -730#3 -730#2 813 730#1 730#2 730#3 730#4 730#5"/>
    </vehicle>
    <vehicle id="passenger_1_96" type="passenger3" depart="18178.00" departLane="best">
        <route edges="863#0 863#1 863#2 116 111 862#0 709 701#2 888#0 888#1 888#2 888#3 888#4 888#5 907#0 907#1 748#0 748#1 748#2 748#3 748#4 748#5"/>
    </vehicle>
    <vehicle id="passenger_GW1_1669" type="passenger1" depart="18196.00" departLane="best">
        <route edges="430#0 434 172 437 79 219 78 221#0 221#1 180 771 85 441 290 1578 223#0 223#1 223#2 223#3 223#4 223#5 223#6 223#7 223#8 223#9 223#10 295#1 295#2 818#0 818#1 213 299 10 318 812#2 -208 -893 902#0 902#1 902#3 -817#1 -817#0 895#3 803#0 885#0 885#1 358#2"/>
    </vehicle>
    <vehicle id="passenger_2_1256" type="passenger2a" depart="18221.00" departLane="best">
        <route edges="1408#5 1408#6 1408#7 497#1 243 494#0 494#1 494#2 494#3 494#4 351#2 351#3 351#4 -350 -105 -519#3 -519#2 -519#1 -519#0 -582#10 -582#9 -582#8 -582#7 -582#6 -582#5 -582#4 630#1 630#2 630#3 -617#5 394#0 394#1 394#2 394#3 394#5 -609#1 -609#0 625#2 622#1 622#2"/>
    </vehicle>
    <vehicle id="passenger_1_121" type="passenger1" depart="18227.00" departLane="best">
        <route edges="240#0 240#1 360#5 360#0 360#1 440#0 440#1 440#2 440#3 440#4 440#6 440#8 569#4 585#3 585#4 174 -182 -677 -183 -716 -184 -710 185 281 -81 362 204 205#2 205#3 -197 879#5 879#6 879#7 879#8 879#11 878#1 878#2 -737#2 -737#0"/>
    </vehicle>
    <vehicle id="passenger_1_799" type="passenger1" depart="18231.00" departLane="best">
        <route edges="585#0 585#1 585#2 585#3 585#4 174 -182 -677 -183 -716 -184 -710 185 281 -81 362 204 205#2 205#3 -197 879#5 879#6 879#7 879#8 879#11 878#1 878#2 878#3 878#4 695 734#0 734#1 734#2 734#3 284#0 284#1 693 277 215"/>
    </vehicle>
    <vehicle id="passenger_3_2192" type="passenger2b" depart="18264.00" departLane="best">
        <route edges="-1405#1 -820 1386#1 926#0 926#1 117 1259 1578 223#0 223#1 223#2 223#3 223#4 223#5 223#6 223#7 223#8 223#9 223#10 295#1 295#2 818#0 818#1 213 299 10 318 812#2 -208 -893 902#0 902#1 902#3 -817#1 -817#0 895#3 803#0 885#0 885#1 358#2 294#0 294#1"/>
    </vehicle>
    <vehicle id="passenger_3_3364" type="passenger1" depart="18264.00" departLane="best">
        <route edges="666#5 666#7 666#8 -310#0 309 341#1 -1363#3 -1363#2 -1363#1 -1363#0 -1379#5 1384#0 1384#1 1384#2 1384#3 1384#4 1384#5 1384#6 928#6 303 1573#1 883 290 1578 223#0 223#1 223#2 223#3 223#4 223#5 223#6 223#7 223#8 223#9 223#10 295#1 295#2 818#0 807"/>
    </vehicle>
    <vehicle id="passenger_GW1_1029" type="passenger4" depart="18264.00" departLane="best">
        <route edges="430#0 434 172 437 79 219 78 221#0 221#1 180 771 85 441 290 1578 223#0 223#1 223#2 223#3 223#4 223#5 223#6 223#7 223#8 223#9 223#10 295#1 295#2 818#0 818#1 908 730#0 730#1 730#2 730#3 730#4 730#5 730#6 730#7 730#8 730#9 730#10 730#11 675 112 701#0 735 863#2 116 617#0 683#0 683#1 683#2 683#3 -858#4 455 -683#2"/>
    </vehicle>
    <vehicle id="passenger_1_93" type="passenger2b" depart="18269.00" departLane="best">
        <route edges="189#1 886 732#2 732#3 747#0 282#1 282#2 -700#1 -700#0 -682#1 -682#0 879#7 879#8 879#11 878#1 878#2 878#3 878#4 695 734#0 734#1 734#2 734#3 734#4 285 371 188"/>
    </vehicle>
    <vehicle id="passenger_3_1642" type="passenger1" depart="18281.00" departLane="best">
        <route edges="-666#2 -666#1 -666#0 666#3 666#4 666#5 666#7 666#8 -310#0 309 341#1 -1363#3 -1363#2 -1363#1 -1363#0 -1379#5 1384#0 1384#1 1384#2 1384#3 1384#4 1384#5 1384#6 928#6 303 1573#1 883 290 1578 223#0 223#1 223#2 223#3 223#4 223#5 223#6 223#7 223#8 -927#3 -927#2 -927#1 -927#0 -816#1 -816#0 856#0 856#1 856#2"/>
        <stop parkingArea="22499" duration="43200.00"/>
    </vehicle>
    <vehicle id="passenger_GW1_260" type="passenger2a" depart="18308.00" departLane="best">
        <route edges="430#0 434 172 437 79 219 78 221#0 221#1 180 771 85 441 290 1578 223#0 223#1 223#2 223#3 223#4 223#5 223#6 223#7 223#8 223#9 223#10 295#1 295#2 818#0 818#1 213 299 443#0 443#1"/>
    </vehicle>
    <vehicle id="passenger_2_1128" type="passenger4" depart="18328.00" departLane="best">
        <route edges="-1503 666#5 666#7 666#8 -310#0 309 341#1 -1363#3 -1363#2 -1363#1 -1363#0 1379#6 1379#7 1361#1 650#0 -652#2 -652#1 -652#0 1319#0 1319#1 1494#0 1494#1 1494#2 1320 1315#1 1315#2 -542#1 -542#0 -1312#5 -1312#4 -1312#3 -1312#2 -1312#1 -1312#0 137 1314 -1311#0 -138 -1313#1 -1313#0 -139 -1340#5 -1250#5 -1250#4 -1250#3 -1250#2 -1250#1 -1250#0 850#3 -1327#1 -917#8 -917#7 -917#6 -917#5 -917#4"/>
    </vehicle>
    <vehicle id="passenger_GW1_556" type="passenger1" depart="18331.00" departLane="best">
        <route edges="430#0 434 172 437 79 219 78 221#0 221#1 180 771 85 441 290 1578 223#0 223#1 223#2 223#3 223#4 223#5 223#6 223#7 223#8 223#9 223#10 295#1 295#2 818#0 818#1 908 730#0 730#1 730#2 730#3 730#4 730#5 730#6 730#7 730#8 730#9 730#10 730#11 675 112 701#0 735 863#2 116 617#0 683#0 683#1 683#2 683#3 632 580 691#3"/>
    </vehicle>
    <vehicle id="passenger_GW1_1085" type="passenger1" depart="18340.00" departLane="best">
        <route edges="1406 196 844 145 1405#0 1405#1 194 1263 195 -1404#27 -1404#26 -1404#25 -1404#24 -1404#23 -1404#21 -1404#20 -1404#19 -1404#18 -1404#17 -1404#16 -1404#13 -1404#12 -1404#11 -1404#10 929#0 929#1 929#2 929#3 929#4 929#5 929#6 929#7 298#2 816#0 816#1 816#2 193 -787#5 -787#4 -787#3 -787#2 -787#1 -787#0 1484#3 864#0 864#1"/>
    </vehicle>
    <vehicle id="passenger_3_3289" type="passenger2a" depart="18364.00" departLane="best">
        <route edges="-922#3 -922#2 -922#1 -922#0 -1363#2 -1363#1 -1363#0 1379#6 1379#7 1361#1 650#0 -652#2 -652#1 -652#0 1319#0 1319#1 1494#0 1494#1 1248#0 1248#1 1248#2 1248#3 1248#4 1248#5 1248#6 1248#7 1248#8 1248#9 1248#10 1248#11 1248#12 -1256#7 -1256#6 -1256#5 -1256#4 -1256#3 -1256#2 -1256#1 -1256#0 1372#2 1372#3 1372#4 752#0 752#1 -287 -752#2"/>
    </vehicle>
    <vehicle id="passenger_3_2209" type="passenger1" depart="18374.00" departLane="best">
        <route edges="1265 -1264 -1269#0 911#1 456 -913 -1422 -1285#2 -1282#2 -1282#1 -1282#0 -1287#1 -1287#0 851#3 851#0 -468#6 -468#5 -468#3 -468#2 -468#1 -468#0 1300#1 1408#0 1408#1 1408#2 1408#3 1408#4 1408#5 1408#6 1408#7 497#1 243 494#0 494#1 494#2 494#3 494#4 351#2 351#3 351#4 -350 -105 -519#3 -519#2 -519#1 -519#0 -582#10 -582#9 -582#8 -582#7 -582#6 -582#5 -582#4 630#1 594 447 561#0 562#0 562#1 562#2 562#3"/>
    </vehicle>
    <vehicle id="passenger_GW1_275" type="passenger1" depart="18408.00" departLane="best">
        <route edges="1406 196 844 145 1405#0 1405#1 194 1263 195 -1404#27 -1404#26 -1404#25 -1404#24 -1404#23 -1404#21 -1404#20 -1404#19 -1404#18 -1404#17 -1404#16 -1404#13 -1404#12 -1404#11 -1404#10 -1404#9 -1404#8 -1404#7 -1404#6 -1404#5 -1404#3 -1404#2 -1404#1 -1404#0 315 162 316#0 316#1 201 211#3 211#4 202 205#3 -197 879#5 879#6 879#7 879#8 -741#1 -741#0 -1480#3 -1480#2 -1480#1 -1480#0 -888#1 -888#0 863#0 863#1 863#2 116 617#0 617#1 617#2 -622#3 -622#2 631 627#0 628 394#5 609#2"/>
    </vehicle>
    <vehicle id="passenger_2_613" type="passenger2b" depart="18416.00" departLane="best">
        <route edges="-1368#2 -1368#1 -1369#3 -1369#2 -1369#1 1371 728#1 728#2 728#3 728#4 728#5 730#8 730#9 730#10 730#11 675 112 701#0 735 863#2 116 617#0 617#1 617#2 617#3 617#4 617#5 619 620 618#0 618#1 -858#5"/>
    </vehicle>
    <vehicle id="passenger_2_1654" type="passenger2b" depart="18427.00" departLane="best">
        <route edges="893 208 -812#2 -812#1 -1404#0 315 162 316#0 316#1 201 211#3 211#4 202 205#3 -197 -747#2 -747#1 -747#0 732#4 732#5 857#0 857#1 -726#2 -726#1 -726#0 691#0 691#2 691#3 691#4 691#5 -618#1 -618#0 582#1 582#2 582#3 582#4 582#5 582#6 582#7 582#8 582#9 582#10 582#11 519#1 519#2 519#3 105 350 351#1 -494#4 -494#3 -494#2 -494#1 -494#0 488 100 239#1 103 497#1"/>
    </vehicle>
    <vehicle id="passenger_2_840" type="passenger4" depart="18440.00" departLane="best">
        <route edges="-520#8 -520#7 -520#6 -520#5 -520#4 -520#3 -520#2 -531 -524#0 -519#2 -519#1 -519#0 -582#10 -582#9 -582#8 -582#7 -582#6 -582#5 -582#4 -582#3 -582#2 -582#1 618#0 618#1 -691#5 -691#4 -691#3 -691#2 -691#0 726#0 726#1 726#2 857#2 857#3 736 879#1 879#2 879#3 879#4 879#5 879#6 879#7 879#8 879#11 878#1 878#2 878#3 -733#3 -733#2 -733#1 -733#0 -692 679 -688 -689 -775"/>
    </vehicle>
    <vehicle id="passenger_2_169" type="passenger1" depart="18442.00" departLane="best">
        <route edges="1283#0 1283#1 1283#2 227 82 228 1283#4 1246#2 1290#0 1288#0 1288#1 89 1247#0 1247#1 1247#2 1247#3 1247#4 1300#1 1408#0 1408#1 1408#2 1408#3 1408#4 1408#5 1408#6 1408#7 497#1 243 494#0 494#1 494#2 494#3 494#4 351#2 351#3 520#0 -524#1 531 520#2 520#3 520#4 520#5 520#6 520#7 520#8 520#9 416#1 -562#6 1326#0 1326#1 1326#2 1326#3 1324#4 932#0 932#1 563#1 563#2 563#3 563#4 563#5"/>
    </vehicle>
    <vehicle id="passenger_3_3566" type="passenger2a" depart="18446.00" departLane="best">
        <route edges="1406 196 844 145 1405#0 1405#1 194 1263 195 -1404#27 -1404#26 -1404#25 -1404#24 -1404#23 -1404#21 -1404#20 -1404#19 -1404#18 -1404#17 -1404#16 -1404#13 -1404#12 -1404#11 -1404#10 -1404#9 -1404#8 -1404#7 -1404#6 -1404#5 -1404#3 -1404#2 -1404#1 -1404#0 315 162 316#0 316#1 201 211#3 211#4 202 205#3 205#0 163 320 81 -281 -185 710 184"/>
    </vehicle>
    <vehicle id="passenger_2_11" type="passenger4" depart="18464.00" departLane="best">
        <route edges="728#1 728#2 728#3 728#4 728#5 730#8 730#9 730#10 730#11 675 112 701#0 735 863#2 116 617#0 617#1 617#2 617#3 617#4 617#5 619 620 582#1 582#2 582#3 582#4 582#5 582#6 582#7 582#8 582#9 582#10 582#11 519#1 519#2 519#3 105 350 351#1 -494#4"/>
    </vehicle>
    <vehicle id="passenger_2_1585" type="passenger1" depart="18473.00" departLane="best">
        <route edges="143#0 -963#0 -636#0 -1351#3 1338#0 1338#1 1338#2 1338#3 1338#4 1338#5 1338#6 1338#7 1338#8 1338#9 1252#4 917#0 917#2 917#3 917#4 917#5 917#6 917#7 917#8 1327#1 850#4 850#0 850#1 850#2 1250#0 1250#1 1250#2 1250#3"/>
    </vehicle>
    <vehicle id="passenger_GW1_28" type="passenger2b" depart="18490.00" departLane="best">
        <route edges="420 148 1563 149 1561 164 422 83 419#0 431 469 415#3 415#4 1309#0 1309#1 1309#2 1309#3 1309#4 1309#5 1309#6 1309#7 1311#2 1311#3 1311#4 -134 1297#0 1297#1 133 475 199#0 199#1 -1300#4 -1300#3 -1300#2 1408#0 1408#1 1408#2 1408#3 1408#4 1408#5 1408#6 1408#7 97 -1306#2 -1306#1 -1306#0 99 -490#1 1303#0 1303#1 1303#2 98 355#0 355#1 355#2 360#1 360#2 360#3"/>
    </vehicle>
    <vehicle id="passenger_3_2737" type="passenger1" depart="18493.00" departLane="best">
        <route edges="-1386#0 -1385 1380#1 1380#2 1379#1 1379#2 1379#3 1379#4 1384#0 1384#1 1384#2 1384#3 1384#4 1384#5 1384#6 928#6 303 1573#1 883 290 1578 223#0 223#1 223#2 223#3 223#4 223#5 223#6 223#7 223#8 223#9 223#10 295#1 295#2 818#0 818#1 213 299 10 318 812#2 -208 -893"/>
    </vehicle>
    <vehicle id="passenger_3_3381" type="passenger1" depart="18499.00" departLane="best">
        <route edges="911#1 456 -913 -1422 -1285#2 -1282#2 -1282#1 -1282#0 -1287#1 -1287#0 851#3 851#0 -468#6 -468#5 -468#3 -468#2 -468#1 -468#0 1300#1 1408#0 1408#1 1408#2 1408#3 1408#4 1408#5 1408#6 1408#7 97 -1306#2 -1306#1 496"/>
    </vehicle>
    <vehicle id="passenger_2_675" type="passenger2a" depart="18502.00" departLane="best">
        <route edges="-608 1338#9 -1252#2 -1252#1 -1252#0 -1343#1 -1343#0 1341#14 1341#15 1341#16 918 920 622#0 622#1 622#2 622#3 -617#2 -617#1 -617#0 111 862#0 709 701#2 888#0 888#1 1480#0 1480#1 1480#2 1480#3 741#0 741#1 879#11 878#1 878#2 878#3 878#4 695 734#0 734#1 734#2 734#3 734#4 285 371 188 1577 1576 791#4 791#5 791#0 348"/>
        <stop parkingArea="22468" duration="43200.00"/>
    </vehicle>
    <vehicle id="passenger_2_863" type="passenger4" depart="18508.00" departLane="best">
        <route edges="192 -809#1 -809#0 752#0 752#1 752#2 752#3 752#4 752#5 752#6 -730#2 -730#1 -730#0 909 213 299 10 318 812#2 -208 -893 902#0 902#1 -903 790#0 790#1 790#2 790#3 190"/>
    </vehicle>
    <vehicle id="passenger_1_266" type="passenger1" depart="18524.00" departLane="best">
        <route edges="805 793 775 689 688 -679 692 733#0 733#1 733#2 733#3 878#4 878#0 878#1 878#2 -737#2 -737#0 15#6 15#7 -17 211#4 202 205#3 205#0 163 320 81 -281 -185 710 184 716 183 677 182 179 591 569#1 569#2 569#3 569#4 585#3 1481 593#0 593#1 593#2"/>
    </vehicle>
    <vehicle id="passenger_2_1582" type="passenger1" depart="18525.00" departLane="best">
        <route edges="641#3 1351#1 1351#2 1338#0 1338#1 1338#2 1338#3 1338#4 1338#5 1338#6 1338#7 1338#8 1338#9 -1252#2 -1252#1 -1252#0 -1343#1 -1343#0 1341#14 1341#15 1341#16 918 920 622#0 622#1"/>
    </vehicle>
    <vehicle id="passenger_3_645" type="passenger4" depart="18533.00" departLane="best">
        <route edges="-1264 -1269#0 911#1 456 -913 -1422 -1285#2 -1282#2 -1282#1 -1282#0 -1287#1 -1287#0 851#3 851#0 -468#6 -468#5 -468#3 -468#2 -468#1 -468#0 1300#1 1408#0 1408#1 1408#2 1408#3 1408#4 1408#5 1408#6 1408#7 497#1 243 494#0 494#1 494#2 494#3 494#4 351#2 351#3 351#4 -350 -105 -519#3 -519#2 -519#1 -519#0 -582#10 -582#9 -582#8 -582#7 -582#6 -582#5 -582#4 -582#3 -582#2 -582#1 618#0 618#1 -691#5 -691#4 -691#3 -691#2 -691#0 726#0 726#1 726#2 857#2 857#3 736 879#1 879#2 879#3 879#4 197 205#0 205#1 205#2 -202 211#1 211#2 211#3 17 15#0 16 887 -162"/>
    </vehicle>
    <vehicle id="passenger_2_1439" type="passenger1" depart="18539.00" departLane="best">
        <route edges="-223#7 -223#6 -223#5 -223#4 -223#3 -1407#11 -1396#2 -1396#1 -1396#0 223#4 223#5 223#6 223#7 223#8 -927#3 -927#2 -927#1 -927#0 816#2 193 -787#5 -787#4 -787#3 -787#2 -787#1 -787#0 1484#3 743#0 743#1 888#1 1480#0 1480#1 1480#2 1480#3 741#0"/>
    </vehicle>
    <vehicle id="passenger_2_2374" type="passenger1" depart="18543.00" departLane="best">
        <route edges="-683#0 -617#0 111 862#0 709 701#2 888#0 888#1 1480#0 1480#1 1480#2 1480#3 741#0 741#1 -1194#2 -1194#1 -13#1 -13#0 -684 -12 1194#0 1194#1 1194#2 -741#1 -741#0"/>
    </vehicle>
    <vehicle id="passenger_2_1835" type="passenger1" depart="18576.00" departLane="best">
        <route edges="556#0 556#1 556#2 556#3 -483#3 -897 -538#1 -538#0 -1352#1 650#0 -652#2 -652#1 -652#0 1319#0 1319#1 1494#0 1494#1 1248#0 1248#1 1248#2 1248#3 1248#4 1248#5 1248#6 1248#7 1248#8 1248#9 1248#10 1248#11 1248#12 -1256#7 -1256#6 -1256#5 -1256#4 -1256#3 -1256#2 -1256#1 -1256#0 -1372#0 -1369#3 -1369#2 -1369#1 1371 728#1 728#2 728#3 728#4 728#5 730#8 717 698 1484#2 1484#3 743#0 743#1 888#1 888#2 888#3 888#4 888#5 907#0 907#1 907#2"/>
    </vehicle>
    <vehicle id="passenger_2_2343" type="passenger1" depart="18581.00" departLane="best">
        <route edges="1396#0 1396#1 1396#2 1407#11 223#3 223#4 223#5 223#6 223#7 223#8 223#9 223#10 295#1 295#2 818#0 818#1 908 730#0 730#1 730#2 730#3 730#4 730#5 730#6 730#7 730#8 730#9 730#10 730#11 675 112 701#0 735 863#2 116 617#0 617#1 617#2 617#3 617#4 394#0 615"/>
    </vehicle>
    <vehicle id="passenger_GW1_1110" type="passenger1" depart="18581.00" departLane="best">
        <route edges="1406 196 844 145 1405#0 1405#1 194 1263 195 -1404#27 -1404#26 -1404#25 -1404#24 -1404#23 -1404#21 -1404#20 -1404#19 -1404#18 -1404#17 -1404#16 -1404#13 -1404#12 -1404#11 -1404#10 -1404#9 -1404#8 -1404#7 -1404#6 -1404#5 -1404#3 -1404#2 -1404#1 -1404#0 315 162 316#0 316#1 201 211#3 211#4 202 205#3 205#0 163 320 81 -281 -185 710 184 716 183 677 182 179 591 569#1 569#2 439#0 439#2 439#4 439#5 439#6 523 528 440#2 515 -526"/>
    </vehicle>
    <vehicle id="passenger_2_1293" type="passenger1" depart="18582.00" departLane="best">
        <route edges="-671 -1363#0 1379#6 1379#7 1361#1 650#0 -652#2 -652#1 -652#0 1319#0 1319#1 1494#0 1494#1 1494#2 1320 1315#1 1315#2 -542#1 -542#0 -1312#5 -1312#4 -1312#3 -1312#2 -1312#1 -1312#0 137 1314 -1311#0 -138 -1313#1 -1313#0 -139 -1340#5 -1250#5 -1250#4 -1252#11 -1252#10 -1252#9 -1252#8 -1252#7 -1252#6 -1252#5 -1252#4 -1252#2 -1252#1 -1252#0 -1343#1 -1343#0 1341#14 1341#15 1341#16 918 920 622#0 622#1 622#2 622#3 617#3 617#4 617#5 619 620 572#0 572#1 572#2 -593#5 -593#4 -593#3 -593#2 -593#1 -593#0 586 569#1 569#2 439#0 -573#1 -573#0"/>
    </vehicle>
    <vehicle id="passenger_3_2590" type="passenger1" depart="18634.00" departLane="best">
        <route edges="180 771 85 441 290 1578 223#0 223#1 223#2 223#3 223#4 223#5 223#6 223#7 223#8 223#9 223#10 295#1 295#2 818#0 818#1 213 299 10 318 812#2 -208 -893 902#0 902#1 902#3 -817#1 -817#0 895#3 895#4 800#0 795"/>
    </vehicle>
    <vehicle id="passenger_2_678" type="passenger2b" depart="18639.00" departLane="best">
        <route edges="-1402 1398 931#0 839 -836#0 -1404#21 -1404#20 -1404#19 -1404#18 -1404#17 -1404#16 -1404#13 -1404#12 -1404#11 -1404#10 -1404#9 -1404#8 -1404#7 -1404#6 -1404#5 -1404#3 -1404#2 -1404#1 -1404#0 315 162 316#0 316#1 201 211#3 211#4 202 205#3 205#0 163 320 362 204"/>
    </vehicle>
    <vehicle id="passenger_3_3454" type="passenger2a" depart="18646.00" departLane="best">
        <route edges="-390#3 -390#2 -390#1 -1502#1 -1503 666#5 666#7 666#8 -310#0 309 341#1 -1363#3 -1363#2 -1363#1 -1363#0 1379#6 1379#7 1361#1 650#0 -652#2 -652#1 -652#0 1319#0 1319#1 1494#0 1494#1 1494#2 1320 1315#1 1315#2 -542#1 -542#0 -1312#5 -1312#4 -1312#3 -1312#2 -1312#1 -1312#0 137 1314 -1311#0 -138 -1313#1 -1313#0 -139 -1340#5 -1250#5 -1250#4 -1252#11 -1252#10 -1252#9 -1252#8 -1252#7 -1252#6 -1252#5 -1252#4 -1252#2 -1252#1 -1252#0 -1343#1 -1343#0 1341#14 1341#15 1341#16 918 920 622#0 622#1 622#2 622#3 617#3 617#4 617#5 619 620 572#0 572#1"/>
    </vehicle>
    <vehicle id="passenger_GW1_883" type="passenger2b" depart="18660.00" departLane="best">
        <route edges="420 148 1563 149 1561 164 422 83 419#0 431 469 415#3 415#4 1309#0 1309#1 1309#2 1309#3 1309#4 1309#5 1309#6 1309#7 -1311#1 -1311#0 -138 -1313#1 -1313#0 -139 -1340#5 -1250#5 -1250#4 -1252#11 -1252#10 -1252#9 -1252#8 -1252#7 -1252#6 -1252#5 -1252#4 -1252#2 -1252#1 -1252#0 -1343#1 -1343#0 1341#14 1341#15 1341#16 918 920 622#0 622#1 622#2 622#3 617#3 617#4 617#5 619 620 618#0 -604#2 -604#1 -604#0 564#1 686"/>
    </vehicle>
    <vehicle id="passenger_3_2514" type="passenger2a" depart="18688.00" departLane="best">
        <route edges="1265 -1264 -1269#0 911#1 456 -913 -1422 -1285#2 -1282#2 -1282#1 -1282#0 -1287#1 -1287#0 851#3 851#0 -468#6 -468#5 -468#3 -468#2 -468#1 -468#0 1300#1 1408#0 1408#1 1408#2 1408#3 1408#4 1408#5 1408#6 1408#7 497#1 243 494#0 494#1 494#2 494#3 494#4 351#2 351#3 351#4 -350 -105 -519#3 -519#2 -519#1 -519#0 -582#10 -582#9 -582#8 -582#7 -582#6 -582#5 -582#4 -582#3 -582#2 -582#1 618#0 618#1 -691#5 -691#4 -691#3 -691#2 -691#0 726#0 726#1 726#2 857#2 857#3 736 879#1 879#2 363 365 364 -363"/>
    </vehicle>
    <vehicle id="passenger_GW1_77" type="passenger2a" depart="18690.00" departLane="best">
        <route edges="430#0 434 172 437 79 219 78 221#0 221#1 180 771 85 441 290 1578 223#0 223#1 223#2 223#3 223#4 223#5 223#6 223#7 223#8 -927#3 -927#2 -927#1 -927#0 -816#1 -816#0 856#0 856#1 856#2 316#1 201 211#3 211#4 202 205#3 205#0 163 320 81 -281 -185 710 184 716"/>
    </vehicle>
    <vehicle id="passenger_GW1_494" type="passenger1" depart="18700.00" departLane="best">
        <route edges="430#0 434 172 437 79 219 78 221#0 221#1 180 771 85 441 290 1578 223#0 223#1 223#2 223#3 223#4 223#5 223#6 223#7 223#8 -927#3 -927#2 -927#1 -927#0 -816#1 -816#0 856#0 856#1 856#2 316#1 201 211#3 17 15#0"/>
    </vehicle>
    <vehicle id="passenger_3_2449" type="passenger1" depart="18724.00" departLane="best">
        <route edges="-390#3 -390#2 -390#1 -1502#1 -1503 666#5 666#7 666#8 -310#0 309 341#1 -1363#3 -1363#2 -1363#1 -1363#0 -1379#5 1384#0 1384#1 1384#2 1384#3 1384#4 1384#5 1384#6 928#6 303 1573#1 883 290 1578 223#0 223#1 223#2 223#3 223#4 223#5 223#6 223#7 223#8 -927#3 -927#2 -927#1 -927#0 816#2 193 -787#5 -787#4 -748#6 -748#5 -748#4 -748#3 -748#2 -748#1 -748#0 -907#1 -907#0 -888#5"/>
    </vehicle>
    <vehicle id="passenger_GW1_344" type="passenger1" depart="18791.00" departLane="best">
        <route edges="1406 196 844 145 1405#0 1405#1 194 1263 195 -1404#27 -1404#26 -1404#25 -1404#24 -1404#23 -1404#21 -1404#20 -1404#19 -1404#18 -1404#17 -1404#16 -1404#13 -1404#12 -1404#11 -1404#10 -1404#9 -1404#8 -1404#7 -1404#6 -1404#5 -1404#3 -1404#2 -1404#1 -1404#0 315 162 316#0 316#1 201 211#3 211#4 202 205#3 205#0 163 320 81 -281 -185 710 184 716 183 677 182 178 108 584#0 584#1 257#2 -521#1 -521#0 -106 499#0 499#1 527"/>
    </vehicle>
    <vehicle id="passenger_3_2419" type="passenger1" depart="18798.00" departLane="best">
        <route edges="-125 -1271 -128 -1269#1 -1269#0 911#1 456 -913 -1422 -1285#2 -1282#2 -1282#1 -1282#0 -1287#1 -1287#0 851#3 851#0 -468#6 -468#5 -468#3 -468#2 -468#1 -468#0 1300#1 1408#0 1408#1 1408#2 1408#3 1408#4 1408#5 1408#6 1408#7 497#1 243 494#0 494#1 494#2 494#3 494#4 351#2 351#3 351#4 -350 -105 -519#3 -519#2 -519#1 -519#0 -582#10 -582#9 -582#8 -582#7 -582#6 -582#5 -582#4 -582#3 -582#2 -582#1 618#0 618#1 -691#5 -691#4 -691#3 -691#2 -691#0 726#0 726#1 726#2 857#2 857#3 736 879#1 879#2 879#3 879#4 879#5 879#6 879#7 879#8 879#11 878#1 878#2 878#3 -733#3 -733#2 -733#1 -733#0 -692 679 -688 -689 690 715 719 -782 -866"/>
    </vehicle>
    <vehicle id="passenger_GW1_1689" type="passenger3" depart="18803.00" departLane="best">
        <route edges="430#0 434 172 437 79 219 78 221#0 221#1 180 771 85 441 290 1578 223#0 223#1 223#2 223#3 223#4 223#5 223#6 223#7 223#8 -927#3 -927#2 -927#1 -927#0 816#2 193 -787#5 -787#4 -748#6"/>
    </vehicle>
    <vehicle id="passenger_3_3592" type="passenger2b" depart="18812.00" departLane="best">
        <route edges="-1269#0 911#1 456 -913 -1422 -1285#2 -1282#2 -1282#1 -1282#0 -1287#1 -1287#0 851#3 851#0 -468#6 -468#5 -468#3 -468#2 -468#1 -468#0 1300#1 1408#0 1408#1 1408#2 1408#3 1408#4 1408#5 1408#6 1408#7 497#1 243 494#0 494#1 494#2 494#3 494#4 351#2 351#3 351#4 -350 -105 -519#3 -519#2 -519#1 -519#0 -582#10 -582#9 -582#8 -582#7 -582#6 -582#5 -582#4 -582#3 -582#2 -582#1 618#0 618#1 -691#5 -691#4 -691#3 -691#2 -691#0 726#0 726#1 726#2 857#2 857#3 736 879#1 879#2 879#3 879#4 197 205#0 205#1 205#2 -202 211#1 211#2 211#3 17 15#0 16 887 -162 -315 -877 1404#1 1404#2 1404#3 1404#5 1404#6 1404#7 1404#8 1404#9 929#0 929#1 929#2 929#3 929#4 929#5 929#6"/>
    </vehicle>
    <vehicle id="passenger_2_443" type="passenger4" depart="18827.00" departLane="best">