<?xml version="1.0" encoding="UTF-8"?>
<!-- generated on 2018-05-24 105:21.478888 by $Id$
  options: -n ../scenario/in/most.net.xml -b 18000 -e 43200 -p 1200 <doubleminus>random-begin <doubleminus>seed 42 <doubleminus>no-vtypes <doubleminus>ptstops ../scenario/in/add/most.busstops.add.xml <doubleminus>ptlines pt/most.buslines.add.xml -o out/most.buses.flows.xml
-->
<routes xmlns:xsi="http://www.w3.org/2001/XMLSchema-instance" xsi:noNamespaceSchemaLocation="http://sumo.dlr.de/xsd/routes_file.xsd">
    <route id="bus_M2:France" edges="1361#1 650#0 -652#2 -655 -650#0 -1352#0 -1361#0 -1379#6 -1379#5 -1379#4 -1379#3 -1379#2 -1379#1 -1379#0 -1380#1 1385 -1387#0 -144 1388" >
        <stop busStop="25440" duration="30.00" until="37.0"/> <!-- La Turbie Marie -->
        <stop busStop="25444" duration="30.00" until="429.0"/> <!-- 25444 -->
    </route>
    <route id="bus_M4:Train" edges="1404#13 1404#16 1404#17 1404#18 1404#19 1404#20 1404#21 836#0 -839 -931#0 -837#2" >
        <stop busStop="25456" duration="30.00" until="61.0"/> <!-- L'Eglise -->
        <stop busStop="25454" duration="30.00" until="135.0"/> <!-- La Source -->
        <stop busStop="25311" duration="30.00" until="206.0"/> <!-- Les Cigognes -->
        <stop busStop="25471" duration="30.00" until="261.0"/> <!-- Bois Joli -->
    </route>
    <route id="bus_M4:HotelVille" edges="837#2 931#0 839 -836#0 -1404#21 -1404#20 -1404#19 -1404#18 -1404#17 -1404#16 -1404#13" >
        <stop busStop="25303" duration="30.00" until="44.0"/> <!-- Bois Joli -->
        <stop busStop="25472" duration="30.00" until="99.0"/> <!-- Les Cigognes -->
        <stop busStop="25453" duration="30.00" until="164.0"/> <!-- Guillaume Apollinaire -->
        <stop busStop="25455" duration="30.00" until="239.0"/> <!-- L'Eglise -->
        <stop busStop="25457" duration="30.00" until="304.0"/> <!-- Hotel de Ville -->
    </route>
    <route id="bus_M1:France" edges="844 145 1405#0 -820 -1386#0 -1387#0 -144 1388" >
        <stop busStop="25448" duration="30.00" until="74.0"/> <!-- Parking Saint-Laurent d'Eze -->
        <stop busStop="25307" duration="30.00" until="228.0"/> <!-- Chapelle de Saint-Laurent -->
        <stop busStop="25444" duration="30.00" until="594.0"/> <!-- 25444 -->
    </route>
    <route id="bus_M1:Eze" edges="-1388 144 1387#0 1387#1 820 -1405#0 -145 -844" >
        <stop busStop="25443" duration="30.00" until="38.0"/> <!-- 25443 -->
        <stop busStop="25438" duration="30.00" until="419.0"/> <!-- Chapelle de Saint-Laurent -->
        <stop busStop="25447" duration="30.00" until="555.0"/> <!-- Parking Saint-Laurent d'Eze -->
    </route>
    <route id="bus_M2:Turbie" edges="-1388 144 1387#0 -1385 1380#1 1380#2 1379#1 1379#2 1379#3 1379#4 1379#5 1379#6 1379#7 825#0" >
        <stop busStop="25443" duration="30.00" until="40.0"/> <!-- 25443 -->
        <stop busStop="25306" duration="30.00" until="384.0"/> <!-- La Turbie Marie -->
    </route>
    <route id="bus_M5:Ramingao" edges="1593 175 -465 -1285#2 -1285#1 -1285#0 -121 -914#1 -914#0" >
        <stop busStop="25416" duration="30.00" until="43.0"/> <!-- Pont de l'Union -->
        <stop busStop="25474" duration="30.00" until="136.0"/> <!-- 25474 -->
        <stop busStop="25352" duration="30.00" until="276.0"/> <!-- Le Cirta -->
        <stop busStop="25350" duration="30.00" until="340.0"/> <!-- Mairie -->
        <stop busStop="25428" duration="30.00" until="473.0"/> <!-- 1er Escalier -->
        <stop busStop="25430" duration="30.00" until="538.0"/> <!-- 2e Escalier -->
        <stop busStop="25435" duration="30.00" until="616.0"/> <!-- Ramingao -->
    </route>
    <route id="bus_M5:PontUnion" edges="914#0 914#1 121 1285#0 1285#1 -1282#2 -1282#1 -1282#0 -1287#1 -1287#0 851#3 851#0 851#1 851#2 1287#0 1287#1 1282#0 1282#1 1282#2 1285#2 -876 -175 464" >
        <stop busStop="25434" duration="30.00" until="64.0"/> <!-- Ramingao -->
        <stop busStop="25431" duration="30.00" until="144.0"/> <!-- 2e Escalier -->
        <stop busStop="25429" duration="30.00" until="224.0"/> <!-- 1er Escalier -->
        <stop busStop="25427" duration="30.00" until="450.0"/> <!-- Massolin -->
        <stop busStop="25354" duration="30.00" until="553.0"/> <!-- Cypris -->
        <stop busStop="25353" duration="30.00" until="622.0"/> <!-- Orchidees -->
        <stop busStop="25351" duration="30.00" until="762.0"/> <!-- Victoria -->
        <stop busStop="25470" duration="30.00" until="848.0"/> <!-- Pont de l'Union -->
    </route>
    <route id="bus_M3:Hospital" edges="825#0 825#1 825#2 825#3 825#5 825#6 825#7 825#8 306#1 306#2 306#3 223#0 223#1 223#2 223#3 223#4 223#5 223#6 223#7 223#8 -927#3 -927#2 -927#1 -927#0 -816#1 -816#0 298#0 298#2 816#0 816#1" >
        <stop busStop="25306" duration="30.00" until="38.0"/> <!-- La Turbie Marie -->
        <stop busStop="25314" duration="30.00" until="116.0"/> <!-- 25314 -->
        <stop busStop="25296" duration="30.00" until="229.0"/> <!-- 25296 -->
        <stop busStop="25295" duration="30.00" until="553.0"/> <!-- 25295 -->
        <stop busStop="25313" duration="30.00" until="661.0"/> <!-- 25313 -->
        <stop busStop="25305" duration="30.00" until="737.0"/> <!-- 25305 -->
        <stop busStop="25331" duration="30.00" until="876.0"/> <!-- Hopital -->
    </route>
    <route id="bus_1:Monaco" edges="242 494#1 494#2 494#3 494#4 351#2 529#0 529#1 529#2 -212 -884#1 -884#0 855#0 855#1 855#2 855#3 855#4 -520#6 -520#5 -520#4 -520#3 -520#2 -531 -524#0 -519#2 -519#1 -519#0 -582#10 -582#9 -568 -589 -574 -566 -868 -576 -582#3 -582#2 -582#1 618#0 618#1 -858#5 632 580 -691#2 -691#0 726#0 726#1 726#2 857#2 857#3 736 879#1 879#2 879#3 879#4 197 205#0 163 320 81 -281 -185 710 184 716 183 677 182 179 591 261 -577 -181 -678 -703#2 -703#1 -703#0 857#1 857#2 857#3 736 879#1 879#2 879#3 879#4 879#5 879#6 879#7 879#8 -1194#2 -1194#1 -13#1 -13#0 718 734#1 -186 -742 737#2 878#3 -733#3 -733#2 -733#1 -733#0 -692 679 -688 -689 690 -676" >
        <stop busStop="25442" duration="30.00" until="42.0"/> <!-- Saint-Roman (Bus 1) -->
        <stop busStop="25409" duration="30.00" until="109.0"/> <!-- Carmes -->
        <stop busStop="25400" duration="30.00" until="231.0"/> <!-- La Rousse -->
        <stop busStop="25404" duration="30.00" until="320.0"/> <!-- Place des Moulins -->
        <stop busStop="25410" duration="30.00" until="388.0"/> <!-- Saint-Charles -->
        <stop busStop="25338" duration="30.00" until="489.0"/> <!-- Monte-Carlo -->
        <stop busStop="25339" duration="30.00" until="553.0"/> <!-- Square Beaumarchais -->
        <stop busStop="25408" duration="30.00" until="725.0"/> <!-- Ostende -->
        <stop busStop="25336" duration="30.00" until="889.0"/> <!-- Place Sainte-Devote (Gare) -->
        <stop busStop="25398" duration="30.00" until="942.0"/> <!-- Princesse Florestine -->
        <stop busStop="25394" duration="30.00" until="1028.0"/> <!-- Place d'Armes (Port) -->
        <stop busStop="25392" duration="30.00" until="1174.0"/> <!-- Monaco Ville (le Rocher) -->
    </route>
    <route id="bus_2:Jardin" edges="-676 -679 692 733#0 733#1 733#2 733#3 878#4 878#0 878#1 878#2 -737#2 -737#0 15#6 15#7 -17 211#4 202 205#3 -197 879#5 879#6 879#7 879#8 -1194#2 -1194#1 -13#1 -13#0 718 734#1 734#2 734#3 734#4 285 283 732#1 732#2 732#3 732#4 732#5 857#0 857#1 -726#2 -726#1 -726#0 691#0 691#2 691#3 691#4 691#5 -618#1 -618#0 582#1 582#2 582#3 630#1 630#2 630#3 -617#5 -617#4 -617#3 -617#2 -617#1 -617#0 111 862#0 862#1 -730#11 -730#10 -730#9 -730#8 -730#7 -730#6 -730#5 -730#4 -730#3 -730#2 813 730#1" >
        <stop busStop="25392" duration="30.00" until="39.0"/> <!-- Monaco Ville (le Rocher) -->
        <stop busStop="25394" duration="30.00" until="238.0"/> <!-- Place d'Armes (Port) -->
        <stop busStop="25320" duration="30.00" until="304.0"/> <!-- Princesse Stephanie -->
        <stop busStop="25368" duration="30.00" until="357.0"/> <!-- Stade Nautique -->
        <stop busStop="25369" duration="30.00" until="412.0"/> <!-- Princesse Antoinette -->
        <stop busStop="25370" duration="30.00" until="482.0"/> <!-- Kennedy | Ostende -->
        <stop busStop="25367" duration="30.00" until="545.0"/> <!-- Terrasses du Casino -->
        <stop busStop="25318" duration="30.00" until="629.0"/> <!-- Monte-Carlo (TAM) | Monte-Carlo (Tourisme) -->
        <stop busStop="25366" duration="30.00" until="693.0"/> <!-- Cremaillere -->
        <stop busStop="25373" duration="30.00" until="774.0"/> <!-- Roqueville -->
        <stop busStop="25323" duration="30.00" until="838.0"/> <!-- Pont Sainte-Devote -->
        <stop busStop="25395" duration="30.00" until="900.0"/> <!-- Belgique -->
        <stop busStop="25374" duration="30.00" until="955.0"/> <!-- Moneghetti -->
        <stop busStop="25411" duration="30.00" until="1022.0"/> <!-- Rotondes -->
        <stop busStop="25325" duration="30.00" until="1072.0"/> <!-- Villa Paloma -->
        <stop busStop="25413" duration="30.00" until="1141.0"/> <!-- Jardin Exotique -->
    </route>
    <route id="bus_1:SaintRoman" edges="-676 -679 692 733#0 733#1 733#2 733#3 878#4 878#0 878#1 878#2 -737#2 -737#0 15#6 15#7 -17 211#4 202 205#3 -197 879#5 879#6 879#7 879#8 -1194#2 -1194#1 -13#1 -13#0 718 734#1 734#2 734#3 734#4 285 283 732#1 732#2 732#3 732#4 732#5 857#0 857#1 -726#2 -726#1 -726#0 691#0 -276 580 -691#2 -691#0 726#0 726#1 726#2 857#2 857#3 857#4 857#0 703#0 703#1 703#2 678 181 577 565 569#2 569#3 569#4 585#3 1481 593#0 593#1 593#2 593#3 593#4 593#5 -572#2 -572#1 -572#0 582#1 582#2 582#3 576 868 566 574 589 568 -582#8 -582#7 -582#6 -582#5 -582#4 576 868 566 574 589 568 582#9 582#10 582#11 519#1 519#2 519#3 105 350 351#1 -494#4 -494#3 -494#2 242" >
        <stop busStop="25392" duration="30.00" until="40.0"/> <!-- Monaco Ville (le Rocher) -->
        <stop busStop="25394" duration="30.00" until="236.0"/> <!-- Place d'Armes (Port) -->
        <stop busStop="25320" duration="30.00" until="302.0"/> <!-- Princesse Stephanie -->
        <stop busStop="25368" duration="30.00" until="354.0"/> <!-- Stade Nautique -->
        <stop busStop="25369" duration="30.00" until="410.0"/> <!-- Princesse Antoinette -->
        <stop busStop="25370" duration="30.00" until="480.0"/> <!-- Kennedy | Ostende -->
        <stop busStop="25371" duration="30.00" until="655.0"/> <!-- Auditorium Rainier III -->
        <stop busStop="25319" duration="30.00" until="734.0"/> <!-- Portier -->
        <stop busStop="25327" duration="30.00" until="830.0"/> <!-- Spelugues -->
        <stop busStop="25326" duration="30.00" until="886.0"/> <!-- Citronniers -->
        <stop busStop="25335" duration="30.00" until="937.0"/> <!-- Place du Casino -->
        <stop busStop="25318" duration="30.00" until="1048.0"/> <!-- Monte-Carlo (TAM) | Monte-Carlo (Tourisme) -->
        <stop busStop="25337" duration="30.00" until="1126.0"/> <!-- Saint-Charles -->
        <stop busStop="25405" duration="30.00" until="1221.0"/> <!-- Place des Moulins -->
        <stop busStop="25403" duration="30.00" until="1284.0"/> <!-- La Rousse -->
        <stop busStop="25401" duration="30.00" until="1348.0"/> <!-- Carmes -->
        <stop busStop="25442" duration="30.00" until="1413.0"/> <!-- Saint-Roman (Bus 1) -->
    </route>
    <route id="bus_5:Larvotto" edges="816#1 816#2 193 -787#5 -787#4 -787#3 -787#2 -787#1 -787#0 1484#3 864#0 864#1 864#2 730#11 675 112 701#0 735 863#2 116 617#0 617#1 617#2 617#3 617#4 617#5 619 620 582#1 582#2 582#3 -583#2 -583#1 -583#0 -593#4 -593#3 -593#2 -593#1 -593#0 586 569#1 569#2 439#0 439#2 440#6 439#2 439#4 439#5 439#6 439#7 439#8 439#9" >
        <stop busStop="25331" duration="30.00" until="53.0"/> <!-- Hopital -->
        <stop busStop="25381" duration="30.00" until="114.0"/> <!-- Observatoire -->
        <stop busStop="25476" duration="30.00" until="174.0"/> <!-- Parc Princesse Antoinette -->
        <stop busStop="25382" duration="30.00" until="232.0"/> <!-- Bosio -->
        <stop busStop="25399" duration="30.00" until="293.0"/> <!-- Belgique -->
        <stop busStop="25355" duration="30.00" until="364.0"/> <!-- Pont Sainte-Devote -->
        <stop busStop="25406" duration="30.00" until="425.0"/> <!-- Roqueville -->
        <stop busStop="25318" duration="30.00" until="550.0"/> <!-- Monte-Carlo (TAM) | Monte-Carlo (Tourisme) -->
        <stop busStop="25402" duration="30.00" until="620.0"/> <!-- Place du Casino -->
        <stop busStop="25363" duration="30.00" until="685.0"/> <!-- Spelugues -->
        <stop busStop="25319" duration="30.00" until="743.0"/> <!-- Portier -->
        <stop busStop="25384" duration="30.00" until="822.0"/> <!-- Grimaldi Forum/Villa Sauber -->
        <stop busStop="25407" duration="30.00" until="919.0"/> <!-- Plages -->
        <stop busStop="25385" duration="30.00" until="975.0"/> <!-- Sea Club -->
        <stop busStop="25359" duration="30.00" until="1028.0"/> <!-- Larvotto -->
    </route>
    <route id="bus_2:Monaco" edges="730#1 730#2 730#3 730#4 730#5 730#6 730#7 730#8 730#9 730#10 -864#2 -723 -730#9 -730#8 -730#7 -730#6 -730#5 -730#4 -730#3 -730#2 813 730#1 730#2 730#3 730#4 730#5 730#6 730#7 730#8 730#9 730#10 730#11 675 112 701#0 735 863#2 116 617#0 617#1 617#2 617#3 617#4 617#5 619 620 618#0 618#1 -858#5 632 580 -691#2 -691#0 726#0 726#1 726#2 857#2 857#3 736 879#1 879#2 879#3 879#4 197 205#0 163 320 81 -281 -185 710 184 716 183 677 182 179 591 261 -577 -181 -678 -703#2 -703#1 -703#0 857#1 857#2 857#3 736 879#1 879#2 879#3 879#4 879#5 879#6 879#7 879#8 879#11 878#1 878#2 878#3 -733#3 -733#2 -733#1 -733#0 -692 679 -688 -689 690 -676" >
        <stop busStop="25413" duration="30.00" until="39.0"/> <!-- Jardin Exotique -->
        <stop busStop="25324" duration="30.00" until="228.0"/> <!-- Villa Paloma -->
        <stop busStop="25414" duration="30.00" until="375.0"/> <!-- Rotondes -->
        <stop busStop="25345" duration="30.00" until="439.0"/> <!-- Moneghetti -->
        <stop busStop="25388" duration="30.00" until="497.0"/> <!-- Belgique -->
        <stop busStop="25355" duration="30.00" until="575.0"/> <!-- Pont Sainte-Devote -->
        <stop busStop="25406" duration="30.00" until="638.0"/> <!-- Roqueville -->
        <stop busStop="25338" duration="30.00" until="708.0"/> <!-- Monte-Carlo -->
        <stop busStop="25339" duration="30.00" until="770.0"/> <!-- Square Beaumarchais -->
        <stop busStop="25408" duration="30.00" until="942.0"/> <!-- Ostende -->
        <stop busStop="25336" duration="30.00" until="1108.0"/> <!-- Place Sainte-Devote (Gare) -->
        <stop busStop="25398" duration="30.00" until="1161.0"/> <!-- Princesse Florestine -->
        <stop busStop="25360" duration="30.00" until="1241.0"/> <!-- Place d'Armes (vers Monaco Ville) -->
        <stop busStop="25392" duration="30.00" until="1351.0"/> <!-- Monaco Ville (le Rocher) -->
    </route>
    <route id="bus_4:Fontvieille" edges="-242 -494#1 -494#0 488 100 239#1 103 497#1 243 494#0 494#1 494#2 494#3 494#4 351#2 529#0 529#1 529#2 -212 -884#1 -884#0 855#0 855#1 855#2 855#3 855#4 -520#6 -520#5 -520#4 -520#3 -520#2 -531 -524#0 -519#2 -519#1 -519#0 -582#10 -582#9 -568 -589 -574 -566 -868 -576 630#1 630#2 630#3 -617#5 -617#4 -617#3 -617#2 -617#1 -617#0 111 862#0 709 701#2 888#0 888#1 888#2 888#3 888#4 888#5 -711#1 740#0 740#1 15#7 -17 211#4 202 205#3 -197 879#5 879#6 879#7 879#8 -1194#2 -1194#1 -13#1 -13#0 718 734#1 734#2 734#3 734#4 285 705#0 705#1 705#2 -367 -705#3 -705#2 -705#1 -705#0 371 188 1577 1576" >
        <stop busStop="25361" duration="30.00" until="38.0"/> <!-- Saint-Roman (Bus 4) -->
        <stop busStop="25357" duration="30.00" until="99.0"/> <!-- Varavilla -->
        <stop busStop="25439" duration="30.00" until="160.0"/> <!-- Saint-Roman -->
        <stop busStop="25409" duration="30.00" until="231.0"/> <!-- Carmes -->
        <stop busStop="25400" duration="30.00" until="354.0"/> <!-- La Rousse -->
        <stop busStop="25404" duration="30.00" until="440.0"/> <!-- Place des Moulins -->
        <stop busStop="25410" duration="30.00" until="506.0"/> <!-- Saint-Charles -->
        <stop busStop="25366" duration="30.00" until="597.0"/> <!-- Cremaillere -->
        <stop busStop="25373" duration="30.00" until="676.0"/> <!-- Roqueville -->
        <stop busStop="25323" duration="30.00" until="737.0"/> <!-- Pont Sainte-Devote -->
        <stop busStop="25375" duration="30.00" until="801.0"/> <!-- Louis Aureglia -->
        <stop busStop="25321" duration="30.00" until="865.0"/> <!-- Castelleretto -->
        <stop busStop="25322" duration="30.00" until="923.0"/> <!-- Honore II -->
        <stop busStop="25394" duration="30.00" until="1040.0"/> <!-- Place d'Armes (Port) -->
        <stop busStop="25397" duration="30.00" until="1100.0"/> <!-- Princesse Stephanie -->
        <stop busStop="25364" duration="30.00" until="1261.0"/> <!-- Fontvieille - Centre Commercial -->
    </route>
    <route id="bus_4:SaintRoman" edges="1576 791#4 791#5 791#0 348 358#2 294#0 294#1 294#2 294#3 774 -294#4 -294#3 -294#2 560 -190 -790#3 -790#2 -790#1 -790#0 903 902#3 902#4 893 208 -812#2 -812#1 -1404#0 315 162 316#0 316#1 201 211#3 17 15#0 15#1 15#2 15#3 15#4 15#5 737#0 737#2 878#3 878#4 878#0 878#1 878#2 -737#2 -737#0 15#6 15#7 -17 211#4 202 205#3 -197 879#5 879#6 879#7 879#8 -741#1 -741#0 -1480#3 -1480#2 -1480#1 -1480#0 888#2 888#3 888#4 888#5 907#0 907#1 748#0 748#1 748#2 748#3 739#0 739#1 739#2 739#3 708#0 708#1 -748#0 -907#1 -907#0 -888#5 -888#4 -888#3 -888#2 -888#1 -888#0 863#0 863#1 863#2 116 617#0 617#1 617#2 617#3 617#4 617#5 619 620 582#1 582#2 582#3 576 868 566 574 589 568 -582#8 -582#7 -582#6 -582#5 -582#4 576 868 566 574 589 568 582#9 582#10 582#11 519#1 519#2 519#3 105 350 351#1 -494#4 -494#3 -494#2 -494#1 -242" >
        <stop busStop="25364" duration="30.00" until="45.0"/> <!-- Fontvieille - Centre Commercial -->
        <stop busStop="25378" duration="30.00" until="112.0"/> <!-- Papalins -->
        <stop busStop="25334" duration="30.00" until="171.0"/> <!-- Roseraie -->
        <stop busStop="25377" duration="30.00" until="266.0"/> <!-- Heliport -->
        <stop busStop="25478" duration="30.00" until="329.0"/> <!-- Stade Louis II -->
        <stop busStop="25464" duration="30.00" until="411.0"/> <!-- Cimetiere -->
        <stop busStop="25391" duration="30.00" until="513.0"/> <!-- Place d'Armes (Charles III) -->
        <stop busStop="25376" duration="30.00" until="787.0"/> <!-- Castelleretto -->
        <stop busStop="25312" duration="30.00" until="844.0"/> <!-- Louis Aureglia -->
        <stop busStop="25355" duration="30.00" until="911.0"/> <!-- Pont Sainte-Devote -->
        <stop busStop="25406" duration="30.00" until="973.0"/> <!-- Roqueville -->
        <stop busStop="25318" duration="30.00" until="1040.0"/> <!-- Monte-Carlo (TAM) | Monte-Carlo (Tourisme) -->
        <stop busStop="25337" duration="30.00" until="1117.0"/> <!-- Saint-Charles -->
        <stop busStop="25405" duration="30.00" until="1216.0"/> <!-- Place des Moulins -->
        <stop busStop="25403" duration="30.00" until="1278.0"/> <!-- La Rousse -->
        <stop busStop="25401" duration="30.00" until="1342.0"/> <!-- Carmes -->
        <stop busStop="25361" duration="30.00" until="1408.0"/> <!-- Saint-Roman (Bus 4) -->
    </route>
    <route id="bus_6:Larvotto" edges="1576 791#4 791#5 791#0 348 358#2 294#0 294#1 294#2 294#3 774 -294#4 -294#3 -294#2 560 -190 -790#3 -790#2 -790#1 -790#0 903 902#3 -817#1 -817#0 895#3 895#4 800#0 800#1 800#2 791#5 791#0 791#1 791#2 1575 189#0 189#0-AddedOffRampEdge 189#1 886 732#2 732#3 732#4 732#5 857#0 857#1 -726#2 -726#1 -726#0 691#0 691#2 691#3 691#4 691#5 -618#1 -618#0 582#1 582#2 582#3 -583#2 -583#1 -583#0 -593#4 -593#3 -593#2 -593#1 -593#0 586 569#1 569#2 439#0 439#2 440#6 439#2 439#4 439#5 439#6 439#7 439#8 439#9" >
        <stop busStop="25364" duration="30.00" until="45.0"/> <!-- Fontvieille - Centre Commercial -->
        <stop busStop="25378" duration="30.00" until="112.0"/> <!-- Papalins -->
        <stop busStop="25334" duration="30.00" until="172.0"/> <!-- Roseraie -->
        <stop busStop="25377" duration="30.00" until="267.0"/> <!-- Heliport -->
        <stop busStop="25478" duration="30.00" until="330.0"/> <!-- Stade Louis II -->
        <stop busStop="25484" duration="30.00" until="406.0"/> <!-- Albert II -->
        <stop busStop="25379" duration="30.00" until="457.0"/> <!-- Port de Fontvieille -->
        <stop busStop="25368" duration="30.00" until="544.0"/> <!-- Stade Nautique -->
        <stop busStop="25369" duration="30.00" until="599.0"/> <!-- Princesse Antoinette -->
        <stop busStop="25370" duration="30.00" until="667.0"/> <!-- Kennedy | Ostende -->
        <stop busStop="25367" duration="30.00" until="730.0"/> <!-- Terrasses du Casino -->
        <stop busStop="25318" duration="30.00" until="829.0"/> <!-- Monte-Carlo (TAM) | Monte-Carlo (Tourisme) -->
        <stop busStop="25402" duration="30.00" until="896.0"/> <!-- Place du Casino -->
        <stop busStop="25363" duration="30.00" until="963.0"/> <!-- Spelugues -->
        <stop busStop="25319" duration="30.00" until="1020.0"/> <!-- Portier -->
        <stop busStop="25384" duration="30.00" until="1098.0"/> <!-- Grimaldi Forum/Villa Sauber -->
        <stop busStop="25407" duration="30.00" until="1200.0"/> <!-- Plages -->
        <stop busStop="25385" duration="30.00" until="1256.0"/> <!-- Sea Club -->
        <stop busStop="25359" duration="30.00" until="1310.0"/> <!-- Larvotto -->
    </route>
    <route id="bus_6:Fontvieille" edges="439#9 360#3 360#4 360#5 360#0 360#1 440#0 440#1 440#2 440#3 440#4 440#6 440#8 569#4 585#3 1481 593#0 593#1 593#2 593#3 593#4 593#5 564#0 588#1 867#0 867#1 604#1 604#2 618#1 -858#5 632 580 -691#2 -691#0 726#0 726#1 726#2 857#2 857#3 736 879#1 879#2 879#3 879#4 197 205#0 163 320 81 -281 -185 710 184 716 183 677 182 179 591 261 -577 -181 -678 -703#2 -703#1 -703#0 857#1 857#2 857#3 736 879#1 879#2 879#3 879#4 879#5 879#6 879#7 879#8 -1194#2 -1194#1 -13#1 -13#0 718 734#1 734#2 734#3 734#4 285 705#0 705#1 705#2 -367 -705#3 -705#2 -705#1 -705#0 371 188 1577 1576" >
        <stop busStop="25359" duration="30.00" until="46.0"/> <!-- Larvotto -->
        <stop busStop="25485" duration="30.00" until="106.0"/> <!-- Sea Club -->
        <stop busStop="25356" duration="30.00" until="166.0"/> <!-- Plages -->
        <stop busStop="25384" duration="30.00" until="225.0"/> <!-- Grimaldi Forum/Villa Sauber -->
        <stop busStop="25358" duration="30.00" until="286.0"/> <!-- Portier -->
        <stop busStop="25327" duration="30.00" until="362.0"/> <!-- Spelugues -->
        <stop busStop="25326" duration="30.00" until="417.0"/> <!-- Citronniers -->
        <stop busStop="25335" duration="30.00" until="468.0"/> <!-- Place du Casino -->
        <stop busStop="25338" duration="30.00" until="538.0"/> <!-- Monte-Carlo -->
        <stop busStop="25339" duration="30.00" until="600.0"/> <!-- Square Beaumarchais -->
        <stop busStop="25408" duration="30.00" until="774.0"/> <!-- Ostende -->
        <stop busStop="25336" duration="30.00" until="940.0"/> <!-- Place Sainte-Devote (Gare) -->
        <stop busStop="25398" duration="30.00" until="992.0"/> <!-- Princesse Florestine -->
        <stop busStop="25394" duration="30.00" until="1077.0"/> <!-- Place d'Armes (Port) -->
        <stop busStop="25397" duration="30.00" until="1137.0"/> <!-- Princesse Stephanie -->
        <stop busStop="25364" duration="30.00" until="1298.0"/> <!-- Fontvieille - Centre Commercial -->
    </route>
    <route id="bus_5:Hopital" edges="439#9 360#3 360#4 360#5 360#0 360#1 440#0 440#1 440#2 440#3 440#4 440#6 440#8 569#4 585#3 1481 593#0 593#1 593#2 593#3 593#4 593#5 -572#2 -572#1 -572#0 582#1 582#2 582#3 630#1 630#2 630#3 -617#5 -617#4 -617#3 -617#2 -617#1 -617#0 111 862#0 862#1 -730#11 -864#2 -864#1 -864#0 1484#1 1484#2 787#0 787#1 787#2 787#3 787#4 787#5 -193 -816#2 927#0 927#1 927#2 927#3 223#9 223#10 295#1 295#2 818#0 818#1 213 299 315 162 316#0 -856#2 -856#1 -856#0 816#0 816#1" >
        <stop busStop="25359" duration="30.00" until="47.0"/> <!-- Larvotto -->
        <stop busStop="25485" duration="30.00" until="109.0"/> <!-- Sea Club -->
        <stop busStop="25356" duration="30.00" until="169.0"/> <!-- Plages -->
        <stop busStop="25384" duration="30.00" until="228.0"/> <!-- Grimaldi Forum/Villa Sauber -->
        <stop busStop="25358" duration="30.00" until="289.0"/> <!-- Portier -->
        <stop busStop="25327" duration="30.00" until="353.0"/> <!-- Spelugues -->
        <stop busStop="25326" duration="30.00" until="407.0"/> <!-- Citronniers -->
        <stop busStop="25335" duration="30.00" until="459.0"/> <!-- Place du Casino -->
        <stop busStop="25318" duration="30.00" until="521.0"/> <!-- Monte-Carlo (TAM) | Monte-Carlo (Tourisme) -->
        <stop busStop="25366" duration="30.00" until="606.0"/> <!-- Cremaillere -->
        <stop busStop="25373" duration="30.00" until="691.0"/> <!-- Roqueville -->
        <stop busStop="25323" duration="30.00" until="755.0"/> <!-- Pont Sainte-Devote -->
        <stop busStop="25479" duration="30.00" until="822.0"/> <!-- Belgique -->
        <stop busStop="25383" duration="30.00" until="876.0"/> <!-- Bosio -->
        <stop busStop="25475" duration="30.00" until="941.0"/> <!-- Parc Princesse Antoinette -->
        <stop busStop="25362" duration="30.00" until="1023.0"/> <!-- Hopital -->
        <stop busStop="25332" duration="30.00" until="1356.0"/> <!-- Athanee -->
        <stop busStop="25331" duration="30.00" until="1421.0"/> <!-- Hopital -->
    </route>
    <route id="bus_M3:Turbie" edges="1361#1 650#0 -652#2 -655 -650#0 -1352#0 -1361#0 -1379#6 -1379#5 1384#0 1384#1 1384#2 1384#3 1384#4 1384#5 1384#6 -928#5 -928#4 -928#3 -928#2 -928#0 -848#0 -825#7 -825#6 -825#5 -825#3 -825#2 -825#1 661 445 -1410#0 825#2 825#3 825#5 825#6 825#7 825#8 1505#0 -1514 -1516#1 -1516#0 -1517 -1505#0 -306#0 848#0 928#0 928#2 928#3 928#4 928#5 928#6 303 1573#1 883 290 1578 223#0 223#1 223#2 -1407#11 -1396#2 -1396#1 -1396#0 -223#3 -223#2 -223#1 301 223#2 223#3 223#4 223#5 223#6 223#7 223#8 223#9 223#10 295#1 295#2 295#3 295#0 -223#10 -223#9 -223#8 -223#7 -223#6 -223#5 -223#4 -223#3 -1407#11 -1396#2 -1396#1 -1396#0 223#4 223#5 223#6 223#7 223#8 223#9 223#10 295#1 295#2 295#3 295#0 -223#10 -223#9 -223#8 -223#7 -223#6 -223#5 -223#4 -223#3 -1407#11 -1396#2 -1396#1 -1396#0 223#4 223#5 223#6 223#7 223#8 -927#3 -927#2 -927#1 -927#0 -816#1 -816#0 298#0 298#2 816#0 816#1 927#0" >
        <stop busStop="25440" duration="30.00" until="37.0"/> <!-- La Turbie Marie -->
        <stop busStop="25316" duration="30.00" until="468.0"/> <!-- 25316 -->
        <stop busStop="25300" duration="30.00" until="965.0"/> <!-- 25300 -->
        <stop busStop="25315" duration="30.00" until="1464.0"/> <!-- 25315 -->
        <stop busStop="25309" duration="30.00" until="1673.0"/> <!-- 25309 -->
        <stop busStop="25298" duration="30.00" until="1878.0"/> <!-- 25298 -->
        <stop busStop="25362" duration="30.00" until="2187.0"/> <!-- Hopital -->
    </route>
    <route id="bus_3:Fontvieille" edges="752#6 730#3 730#4 730#5 730#6 730#7 730#8 730#9 730#10 -864#2 -723 -730#9 -730#8 -730#7 -730#6 -730#5 -730#4 -730#3 -730#2 813 730#1 730#2 730#3 730#4 730#5 730#6 730#7 730#8 730#9 730#10 -864#2 -864#1 -864#0 1484#1 1484#2 787#0 787#1 787#2 787#3 787#4 787#5 -193 -816#2 927#0 927#1 927#2 927#3 223#9 223#10 295#1 295#2 295#3 295#0 -223#10 -223#9 -927#3 -927#2 -927#1 -927#0 -816#1 -816#0 856#0 856#1 856#2 316#1 201 211#3 17 15#0 15#1 15#2 15#3 15#4 15#5 737#0 737#2 878#3 878#4 878#0 878#1 878#2 -737#2 -737#0 15#6 15#7 -17 211#4 202 205#3 -197 879#5 879#6 879#7 879#8 -1194#2 -1194#1 -13#1 -13#0 718 734#1 734#2 734#3 734#4 285 705#0 705#1 705#2 -367 -705#3 -705#2 -705#1 -705#0 371 188 1577 1576" >
        <stop busStop="25387" duration="30.00" until="43.0"/> <!-- Hector Otto -->
        <stop busStop="25324" duration="30.00" until="231.0"/> <!-- Villa Paloma -->
        <stop busStop="25412" duration="30.00" until="367.0"/> <!-- Rotondes -->
        <stop busStop="25345" duration="30.00" until="416.0"/> <!-- Moneghetti -->
        <stop busStop="25388" duration="30.00" until="475.0"/> <!-- Belgique -->
        <stop busStop="25479" duration="30.00" until="521.0"/> <!-- Belgique -->
        <stop busStop="25383" duration="30.00" until="574.0"/> <!-- Bosio -->
        <stop busStop="25475" duration="30.00" until="639.0"/> <!-- Parc Princesse Antoinette -->
        <stop busStop="25362" duration="30.00" until="722.0"/> <!-- Hopital -->
        <stop busStop="25393" duration="30.00" until="914.0"/> <!-- Athanee -->
        <stop busStop="25330" duration="30.00" until="994.0"/> <!-- Cimetiere -->
        <stop busStop="25391" duration="30.00" until="1088.0"/> <!-- Place d'Armes (Charles III) -->
        <stop busStop="25394" duration="30.00" until="1217.0"/> <!-- Place d'Armes (Port) -->
        <stop busStop="25397" duration="30.00" until="1277.0"/> <!-- Princesse Stephanie -->
        <stop busStop="25364" duration="30.00" until="1441.0"/> <!-- Fontvieille - Centre Commercial -->
    </route>
    <route id="bus_3:Otto" edges="1575 189#0 189#0-AddedOffRampEdge 189#1 886 732#2 732#3 732#4 732#5 857#0 857#1 857#2 857#3 736 879#1 879#2 879#3 879#4 879#5 879#6 879#7 879#8 879#11 878#1 878#2 -737#2 -737#0 15#6 15#7 15#0 16 887 316#0 -856#2 -856#1 -856#0 298#0 298#2 856#0 856#1 856#2 316#1 201 211#3 17 15#0 16 887 316#0 -856#2 -856#1 -856#0 816#0 816#1 816#2 193 -787#5 -787#4 -787#3 -787#2 -787#1 -787#0 1484#3 864#0 864#1 864#2 -730#10 -730#9 -730#8 -730#7 -730#6 -730#5 -730#4 -730#3 -752#6 -752#5 -752#4 -752#3 -752#2 -287 752#3 752#4 752#5 752#6" >
        <stop busStop="25379" duration="30.00" until="40.0"/> <!-- Port de Fontvieille -->
        <stop busStop="25368" duration="30.00" until="124.0"/> <!-- Stade Nautique -->
        <stop busStop="25369" duration="30.00" until="178.0"/> <!-- Princesse Antoinette -->