<?xml version="1.0" encoding="UTF-8"?>

<!--
    Monaco SUMO Traffic (MoST) Scenario
    Copyright (C) 2019
    Lara CODECA

    This program is free software: you can redistribute it and/or modify
    it under the terms of the GNU General Public License as published by
    the Free Software Foundation, either version 3 of the License, or
    (at your option) any later version.

    This program is distributed in the hope that it will be useful,
    but WITHOUT ANY WARRANTY; without even the implied warranty of
    MERCHANTABILITY or FITNESS FOR A PARTICULAR PURPOSE.  See the
    GNU General Public License for more details.

    You should have received a copy of the GNU General Public License
    along with this program.  If not, see <http://www.gnu.org/licenses/>.
-->

<routes xmlns:xsi="http://www.w3.org/2001/XMLSchema-instance" xsi:noNamespaceSchemaLocation="http://sumo.dlr.de/xsd/routes_file.xsd"> 
    <vehicle id="commercial_1-GW1_149" type="commercial" depart="18000" departLane="best" arrivalPos="random">
        <route edges="152766#0 152766#1 -152805#2 -152805#1 152831#2 152305 152312#0 152312#1 152312#2 -152309 152318#1 152318#2 -152308 152281 152530 -152330#5 -152330#4 -152330#3 -152330#2 -152330#1 -152330#0 153637 153634#1 153636#1 152964 -152536 -152210 -152855 -152288 152325#0 152325#1 152202 152327 152205 152329 152323#1"/>
    </vehicle>
    <vehicle id="commercial_1-1_273" type="commercial" depart="18002" departLane="best" arrivalPos="random">
        <route edges="-152780 -152701#2 -152701#1 152767#0"/>
    </vehicle>
    <vehicle id="commercial_2-1_42" type="commercial" depart="18017" departLane="best" arrivalPos="random">
        <route edges="153451#7 153433#1 152734#0 -152736#2 -152736#1 -152736#0 153391#0 153391#1 153392#1 153387#1 153387#2 -152628#1 -152628#0 -153384#1 -153384#0 -152177 -152176#2 -152176#1 -152176#0 -153383#0 -152250 -153385#1 -153385#0 -152251 -153412#5 -153329#5 -153329#4 -153331#11 -153331#10 -153331#9 -153331#8 -153331#7 -153331#6 -153331#5 -153331#4 -153331#2 -153331#1 -153331#0 -153415#1 -153415#0 153413#14 153413#15 153413#16 152997 152999 152706#0 152706#1 152706#2 152706#3 152780 152767#2 152767#3 152716 152381 -152775#0 152810#0 152810#1 152810#2 152820 152960#1 152805#0 -152831#1 152386#1 152386#2 152386#3 -152386#3"/>
    </vehicle>
    <vehicle id="commercial_GW2-1_118" type="commercial" depart="18021" departLane="best" arrivalPos="random">
        <route edges="153656 152283 -152555 -153357#2 -153354#2 -153354#1 -153354#0 -153359#1 -153359#0 -153323#4 -153323#3 -153323#2 -153323#1 -153323#0 -153363#3 152560 -152581#4 -152581#3 -152581#2 -152581#1 -152581#0 152345#1 -152579#1 -152579#0 -152220 -152587#3 -152587#2 -152587#1 -152587#0 152224 152170#0 152170#1 152607 152363#3 152363#0 152363#1 -152669#1 -152669#0 -152226 -152290 -152761 -152291 -152800 -152292 -152794 152293 152385 -152206 152461 152311 152312#2 -152309 152318#1 152317 -152898#2 -152898#1 -152898#0 153560 152975#2 152975#3 152975#4"/>
    </vehicle>
    <vehicle id="commercial_1-GW1_117" type="commercial" depart="18065" departLane="best" arrivalPos="random">
        <route edges="-152832#0 -152987#1 -152987#0 -152795#1 152824#0 152824#1 152137#7 152137#0 152138 152968 -152270 -152418 -152958 153476#1 153476#2 153476#3 153476#5 153476#6 153476#7 153476#8 153476#9 153476#10 153476#11 153476#12 153476#13 153476#14 153476#15 153476#16 153476#17 153476#18 153476#19 153476#20 153476#22 153476#23 153476#24 153476#25 153476#26 -152303 -153342 -152302 -153477#1 -153477#0 -152257 -152927 -152304 -153478"/>
    </vehicle>
    <vehicle id="commercial_GW1-1_215" type="commercial" depart="18067" departLane="best" arrivalPos="random">
        <route edges="153478 152304 152927 152257 153477#0 153477#1 152302 153342 152303 -153476#26 -153476#25 -153476#24 -153476#23 -153476#22 -153476#20 -153476#19 -153476#18 -153476#17 -153476#16 -153476#15 -153476#14 -153476#13 -153476#12 -153476#11 -153476#10 153008#0 153008#1 153008#2 153008#3 153008#4 153008#5 153008#6 153008#7 152402#2 152402#3 152899#0 152899#1 152899#2 -152870#4 -152870#3 -152870#2 -152870#1 -152870#0 153552#3 153552#0 152945#0 152945#1 152945#2 152814#11 152759 152230 152785#0 152819 152944#2 152234 152701#0 152701#1 152701#2 -152706#3 -152706#2 -152706#1 -152706#0 -152999 -152997 -153413#16 -153413#15 -153413#14 -153413#13 -153413#12 -153413#11 -153413#10 -153413#9 -153413#8 -153413#7 -153413#6 -153413#5 -153413#4 -153413#3 -153413#1 -153413#0 153399#0 153399#1 152933#4 152933#0 -153374#14 -153374#13 -153374#12 -153374#11"/>
    </vehicle>
    <vehicle id="commercial_1-GW2_71" type="commercial" depart="18070" departLane="best" arrivalPos="random">
        <route edges="152945#2 -152814#10 -152814#9 -152814#8 -152814#7 -152814#6 -152814#5 -152814#4 -152814#3 -152814#2 -152814#1 -152814#0 152989 -152901#1 -152901#0 152399#3 152399#0 -152168#1 -152168#0 -152166 -152330#5 -152330#4 -152330#3 -152330#2 -152330#1 -152330#0 153637 152405 -153007#6 -153456#6 -153456#5 -153456#4 -153456#3 -153456#2 -153456#1 -153456#0 -153451#4 -153451#3 -153451#2 -153451#1 -153451#0 -153452#1 -153452#0"/>
    </vehicle>
    <vehicle id="commercial_2-1_292" type="commercial" depart="18078" departLane="best" arrivalPos="random">
        <route edges="152937#3 152937#4 -152606#6 -152606#5 -152606#4 -152606#3 -152606#2 -152617 -152610 152602 152607 152363#3 152363#0 152363#1 -152669#1 -152669#0 -152226 -152290 -152761 -152291 -152800 -152292 -152794 152293 152385 -152206 152461 152311 152312#2 -152309 152318#1 152317 -152898#2 -152898#1 -152898#0 152974"/>
    </vehicle>
    <vehicle id="commercial_1-GW1_363" type="commercial" depart="18084" departLane="best" arrivalPos="random">
        <route edges="152677#4 152677#5 152650#0 152672#1 152672#2 -152775#0 152810#0 152810#1 152810#2 152820 152960#1 152960#2 152960#3 152960#4 152305 152312#0 152312#1 152312#2 -152309 152318#1 152318#2 152318#3 152139 152137#0 152138 152968 -152270 -152418 -152958 153476#1 153476#2 153476#3 153476#5 153476#6 153476#7 153476#8 153476#9 153476#10 153476#11 153476#12 153476#13 153476#14 153476#15 153476#16 153476#17 153476#18 153476#19 153476#20 153476#22 153476#23 153476#24 153476#25 153476#26 -152303 -153342 -152302 -153477#1 -153477#0 -152257 -152927 -152304 -153478"/>
    </vehicle>
    <vehicle id="commercial_1-3_311" type="commercial" depart="18085" departLane="best" arrivalPos="random">
        <route edges="152290 152287 152654#1 152654#2 152654#3 152654#4 152670#3 152670#4 152282 -152290 -152761 -152291 -152800 -152292 -152794 152293 152385 -152206 152461 152311 152312#2 -152309 152318#1 152318#2 -152308 152281 152530 -152330#5 -152330#4 -152330#3 -152330#2 -152330#1 -152330#0 153637 153634#1 153636#1 153002#0 153002#1 -153458#1 152903"/>
    </vehicle>
    <vehicle id="commercial_1-1_423" type="commercial" depart="18090" departLane="best" arrivalPos="random">
        <route edges="-152969#2 -152969#1 -152969#0 -152167 152944#0 152944#1 152944#2 152234 152701#0 152701#1 152701#2 152701#3 152701#4 152701#5 152703 152704 152667#1 152667#2 152667#3 -152668#2 -152664#6 -152664#5 -152664#4 -152664#3 -152664#2"/>
    </vehicle>
    <vehicle id="commercial_1-1_534" type="commercial" depart="18100" departLane="best" arrivalPos="random">
        <route edges="152767#0 152767#1 152767#2 152767#3 152939#5 -152702#1 -152702#0 152667#1 152667#2 152667#3 152667#4 152667#5 152667#6 152667#7 152667#8 152667#9 152667#10 152667#11 152605#1 152605#2 152169 152223 152453 152454#1 152454#2 152615#0 152615#1 152615#2 -152319 -152965#1 -152965#0 152937#0 152937#1 152937#2 152937#3 152937#4"/>
    </vehicle>
    <vehicle id="commercial_1-1_69" type="commercial" depart="18102" departLane="best" arrivalPos="random">
        <route edges="152832#1 152832#2 152832#3 152823#0 152823#1 152823#2 152823#3 152792#0 152792#1 -152832#0 -152987#1 -152987#0 -152969#3 -152969#2 -152969#1 -152969#0 -152167 152944#0 152944#1 152944#2 152234 152701#0 152701#1 152701#2 152701#3 152701#4 152701#5 152703 152704 152667#1 152667#2 152667#3 152667#4 152667#5 152667#6 152667#7 152667#8 -152653 -152673 -152659 -152651 -152949"/>
    </vehicle>
    <vehicle id="commercial_GW1-1_264" type="commercial" depart="18111" departLane="best" arrivalPos="random">
        <route edges="152525#0 152525#0-AddedOffRampEdge 152529 152280 152532 152204 152326 152203 152328#0 152328#1 152288 152855 152210 152536 152394 153641 152330#0 152330#1 152330#2 152330#3 152330#4 152330#5 152166 152168#0 152168#1 152399#1 152399#2 152901#0 152901#1 152988 152814#0 152814#1 152814#2 152814#3 152814#4 152814#5 152814#6 152814#7 152814#8 152814#9 152814#10 152814#11 152759 152230 152785#0 152819 152944#2 152234 152701#0 152701#1 152701#2 152701#3 152701#4 152701#5 152703 152704 152667#1 152667#2 152667#3 152667#4 152667#5 152667#6 152667#7 152667#8 152667#9 152667#10 152667#11 152605#1 152605#2 152602 -152170#1 -152170#0 -152224 152587#0 152587#1 152613 -152613"/>
    </vehicle>
    <vehicle id="commercial_1-GW1_347" type="commercial" depart="18116" departLane="best" arrivalPos="random">
        <route edges="152664#1 152664#2 152664#3 152664#4 152664#5 152664#6 -152668#1 -152668#0 152677#5 152650#0 152672#1 152672#2 -152775#0 152810#0 152810#1 152810#2 152820 152960#1 152960#2 152960#3 152960#4 152305 152312#0 152312#1 152312#2 -152309 152318#1 152318#2 152318#3 152139 152137#0 152138 152968 -152270 -152418 -152958 153476#1 153476#2 153476#3 153476#5 153476#6 153476#7 153476#8 153476#9 153476#10 153476#11 153476#12 153476#13 153476#14 153476#15 153476#16 153476#17 153476#18 153476#19 153476#20 153476#22 153476#23 153476#24 153476#25 153476#26 -152303 -153342 -152302 -153477#1 -153477#0 -152257 -152927 -152304 -153478"/>
    </vehicle>
    <vehicle id="commercial_2-1_141" type="commercial" depart="18119" departLane="best" arrivalPos="random">
        <route edges="-153472#1 -153472#0 -153473#3 -153473#2 -153473#1 -153473#0 152920#2 153010#0 153010#1 -153476#22 -153476#20 -153476#19 -153476#18 -153476#17 -153476#16 -153476#15 -153476#14 -153476#13 -153476#12 -153476#11 -153476#10 -153476#9 -153476#8 -153476#7 -153476#6 -153476#5 -153476#3 -153476#2 -153476#1 152895#1 152895#2 152982#0 152982#1 152982#2 -152983 -152886#1"/>
    </vehicle>
    <vehicle id="commercial_2-1_71" type="commercial" depart="18121" departLane="best" arrivalPos="random">
        <route edges="152270 152419#0 -152938#2 -152938#1 -152938#0 152402#3 152899#0 152899#1 152899#2 -152870#4 -152832#6 -152832#5 -152832#4 152823#0 152823#1"/>
    </vehicle>
    <vehicle id="commercial_GW1-1_184" type="commercial" depart="18135" departLane="best" arrivalPos="random">
        <route edges="152525#0 152525#0-AddedOffRampEdge 152529 152280 152532 152204 152326 152203 152328#0 152328#1 152288 152855 152210 152536 152394 153641 152330#0 152330#1 152330#2 152330#3 152330#4 152330#5 152166 152168#0 152168#1 152399#1 152399#2 152901#0 152901#1 152988 152814#0 152814#1 152814#2 152814#3 152814#4 152814#5 152814#6"/>
    </vehicle>
    <vehicle id="commercial_1-GW2_199" type="commercial" depart="18142" departLane="best" arrivalPos="random">
        <route edges="-152582#3 -152582#2 -152582#1 -152582#0 152576 152219 153365#0 153365#1 153365#3 153365#4 153323#0 153323#1 153323#2 153323#3 153323#4 153359#0 153359#1 153354#0 153354#1 153354#2 153357#2 -152957 -152283 152554"/>
    </vehicle>
    <vehicle id="commercial_GW1-1_374" type="commercial" depart="18148" departLane="best" arrivalPos="random">
        <route edges="152525#0 152525#0-AddedOffRampEdge 152529 152280 152532 152204 152326 152203 152328#0 152328#1 152288 152855 152210 152536 152394 153641 152330#0 152330#1 152330#2 152330#3 152330#4 152330#5 152166 152168#0 152168#1 152399#1 152399#2 152901#0 152901#1 152988 152814#0 152814#1 152814#2 152814#3 152814#4 152814#5 152814#6 152814#7 152814#8 152814#9 152814#10 152814#11 152759 152230 152785#0 152819 152944#2 152234 152701#0 152701#1 152701#2 152701#3 152701#4 152701#5 152703 152704 152657#0 152657#1 152657#2 -152677#5 -152677#4 -152677#3 -152677#2 -152677#1 -152677#0 152670#4"/>
    </vehicle>
    <vehicle id="commercial_1-1_194" type="commercial" depart="18150" departLane="best" arrivalPos="random">
        <route edges="152812#2 152812#3 152812#4 152812#5 152814#8 152814#9 152814#10 152814#11 152759 152230 152785#0 152785#1 152785#2 152167 152969#0 152969#1 152969#2 152969#3 -152795#1 152808 152959#3 152959#4 -152817#3 -152817#2 -152817#1 -152817#0 -152776 152763 152760 152799 152803 -152865 -152947 152888 152876 152859"/>
    </vehicle>
    <vehicle id="commercial_1-GW2_142" type="commercial" depart="18156" departLane="best" arrivalPos="random">
        <route edges="152827#1 153552#0 152945#0 152945#1 152945#2 152814#11 152759 152230 152785#0 152819 152944#2 152234 152701#0 152701#1 152701#2 152701#3 152701#4 152701#5 152703 152704 152667#1 152667#2 152667#3 152667#4 152667#5 152667#6 152667#7 152667#8 152667#9 152667#10 152667#11 152605#1 152605#2 152169 152223 152453 152454#1 -152582#4 -152582#3 -152582#2 -152582#1 -152582#0 152576 152219 153365#0 153365#1 153365#3 153365#4 153323#0 153323#1 153323#2 153323#3 153323#4 153359#0 153359#1 153354#0 153354#1 153354#2 153357#2 -152957 -152283 152554"/>
    </vehicle>
    <vehicle id="commercial_3-1_8" type="commercial" depart="18170" departLane="best" arrivalPos="random">
        <route edges="152413#3 152252 153395 152253 -153436 153436 -152253 -153395 -152252 -152413#3 -152413#2 -152413#1 -152413#0 152412 152444#1 -153435#3 -153435#2 -153435#1 -153435#0 153451#6 153451#7 153433#1 152734#0 -152736#2 -152736#1 -152736#0 153391#0 153391#1 153392#1 153387#1 153387#2 -152628#1 -152628#0 -153384#1 -153384#0 -152177 -152176#2 -152176#1 -152176#0 -153383#0 -152250 -153385#1 -153385#0 -152251 -153412#5 -153329#5 -153329#4 -153331#11 -153331#10 -153331#9 -153331#8 -153331#7 -153331#6 -153331#5 152996#0 152996#2 152996#3 152996#4 152996#5 152996#6 152996#7 152996#8 153399#1"/>
    </vehicle>
    <vehicle id="commercial_GW1-1_308" type="commercial" depart="18181" departLane="best" arrivalPos="random">
        <route edges="153478 152304 152927 152257 153477#0 153477#1 152302 153342 152303 -153476#26 -153476#25 -153476#24 -153476#23 -153476#22 -153476#20 -153476#19 -153476#18 -153476#17 -153476#16 -153476#15 -153476#14 -153476#13 -153476#12 -153476#11 -153476#10 -153476#9 -153476#8 -153476#7 -153476#6 -153476#5 -153476#3 -153476#2 -153476#1 -153476#0 152418 152270 152419#0 152419#1 152308 152318#3 152318#4 152309 152312#3 -152305 -152831#2 -152831#1 -152831#0 152816#4 152816#5 -152810#2 -152810#1 -152810#0 152775#0 152775#2 152775#3 152775#4 152775#5 -152702#1 -152702#0 152667#1 152667#2 152667#3 152667#4 152667#5 152667#6 152667#7 152667#8 152667#9 152667#10 152667#11 152605#1 152605#2 152169 152223 152453 152454#1 152454#2 152615#0 152615#1 152615#2 -152319 -152965#1 152455 152456#0 152456#1 -152455 152965#1 152319 -152615#2 -152615#1"/>
    </vehicle>
    <vehicle id="commercial_GW1-1_327" type="commercial" depart="18183" departLane="best" arrivalPos="random">
        <route edges="152525#0 152525#0-AddedOffRampEdge 152529 152280 152532 152204 152326 152203 152328#0 152328#1 152288 152855 152210 152536 152394 153641 152330#0 152330#1 152330#2 152330#3 152330#4 152330#5 152166 -153006#3 -153006#2 -153006#1 -153006#0 -152899#1 -152899#0 152402#0 152402#1 152402#2 152938#0 152938#1 152938#2 152419#1 152308 152318#3 152139 152137#0 152138 152968 -152270 -152418"/>
    </vehicle>
    <vehicle id="commercial_GW2-1_232" type="commercial" depart="18183" departLane="best" arrivalPos="random">
        <route edges="153452#0 153452#1 153452#2 153451#1 153451#2 153451#3 153451#4 153451#5 153451#6 153451#7 153433#1 152734#0 -152736#2 -152736#1 -152736#0 153391#0 153391#1 153392#1 153387#1 153387#2 -152628#1 -152628#0 -153384#1 -153384#0 -152177 -152176#2 -152176#1 -152176#0 -153383#0 -152250 -153385#1 -153385#0 -152251 -153412#5 -153329#5 -153329#4 -153329#3 -153329#2 -153329#1 -153329#0 152933#3 -153399#1 -153399#0"/>
    </vehicle>
    <vehicle id="commercial_3-1_38" type="commercial" depart="18190" departLane="best" arrivalPos="random">
        <route edges="153459#1 153458#1 153005#0 153005#1 152235 153338 153641 152330#0 152330#1 152330#2 152330#3 152330#4 152330#5 152166 152168#0 152168#1 152399#1 152399#2 152901#0 152901#1 152988 152814#0 152814#1 152814#2 152814#3 152814#4 152814#5 152814#6 152814#7 152814#8 152814#9 152814#10 152814#11 152759 152230 152785#0 152819 152944#2 152234 152701#0 152701#1 152701#2 152701#3 152701#4 152701#5 152703 152705#0 152705#1 152175 152678 152542 152647#0 152648#0 152648#1 152648#2 152648#3 152648#4 152648#5 152648#6 152353#2 152354#0"/>
    </vehicle>
    <vehicle id="commercial_1-1_306" type="commercial" depart="18191" departLane="best" arrivalPos="random">
        <route edges="152810#2 152820 152960#1 152805#0 -152831#1 -152831#0 152816#4 152816#5 -152810#2 -152810#1 -152810#0 152775#0 -152381 -152716 -152767#3 -152767#2 -152767#1 -152767#0 -152701#0 152229 152943#0 152943#1 -152814#11 -152814#10 152807 152945#2 152814#11 152759 152230 152785#0 152819 152944#2 152234"/>
    </vehicle>
    <vehicle id="commercial_1-1_547" type="commercial" depart="18207" departLane="best" arrivalPos="random">
        <route edges="152832#2 152832#3 152823#0 152823#1 152823#2 152823#3 152792#0 152792#1 -152832#0 -152987#1 -152987#0 -152795#1 152808 152959#3 152959#4 -152817#3 -152817#2 -152817#1 -152817#0 -152776 152763 152760 152799 152803 -152865 -152947"/>
    </vehicle>
    <vehicle id="commercial_GW1-1_370" type="commercial" depart="18210" departLane="best" arrivalPos="random">
        <route edges="153478 152304 152927 152257 153477#0 153477#1 152302 153342 152303 -153476#26 -153476#25 -153476#24 -153476#23 -153476#22 -153476#20 -153476#19 -153476#18 -153476#17 -153476#16 -153476#15 -153476#14 -153476#13 -153476#12 -153476#11 -153476#10 -153476#9 -153476#8 -153476#7 -153476#6 -153476#5 -153476#3 -153476#2 -153476#1 -153476#0 152418 152270 152419#0 152419#1 152308 152318#3 152318#4 152309 152312#3 -152305 -152831#2 -152831#1 -152831#0 152816#4 152816#5 -152810#2 -152810#1 -152810#0 152775#0 152775#2 152775#3 152775#4 152775#5 -152702#1 -152702#0 152667#1 152667#2 152667#3 152661 152949 152651 152659 152673 152653 -152667#8 -152667#7 -152667#6 -152667#5"/>
    </vehicle>
    <vehicle id="commercial_1-3_235" type="commercial" depart="18223" departLane="best" arrivalPos="random">
        <route edges="152457#0 152457#1 152457#2 152165#1 152535#0 152535#1 152535#2 152535#4 152535#6 152654#4 152670#3 152670#4 152282 -152290 -152761 -152291 -152800 -152292 -152794 152293 152385 -152206 152461 152311 152312#2 -152309 152318#1 152318#2 -152308 152281 152530 -152330#5 -152330#4 -152330#3 -152330#2 -152330#1 -152330#0 153637 153634#1 153636#1 153002#0 153002#1 -153458#1 -153458#0 -153457"/>
    </vehicle>
    <vehicle id="commercial_2-1_276" type="commercial" depart="18233" departLane="best" arrivalPos="random">
        <route edges="-152632 -152976 152728 152687 153420#3 153420#4 153420#5 153420#6 153420#7 153412#3 153412#4 -153329#5 -153329#4 -153331#11 -153331#10 -153331#9 -153331#8 -153331#7 -153331#6 -153331#5 -153331#4 -153331#2 -153331#1 -153331#0 -153415#1 -153415#0 153413#14 153413#15 153413#16 152997 152999 152706#0 152706#1 152706#2 152706#3 -152701#2 -152701#1 -152701#0 152229 152943#0 152793 152785#2 152167 152969#0 152969#1 152969#2 152969#3 -152795#1 152824#0 152824#1 152137#7 152137#0 152137#1 152137#2 -152857 152299 -152898#2 -152898#1 -152898#0 153560 152975#2 152975#3 152886#0 152966#0 152966#1 152458#1 152458#2 152398#0 152398#1 152398#2 152398#3 152398#4 -152398#4 -152398#3"/>
    </vehicle>
    <vehicle id="commercial_1-GW1_121" type="commercial" depart="18243" departLane="best" arrivalPos="random">
        <route edges="-152693#0 152709#2 152706#1 152706#2 152706#3 -152701#2 -152701#1 -152701#0 152229 152943#0 152943#1 -152814#11 -152814#10 -152814#9 -152814#8 -152814#7 -152814#6 -152814#5 -152814#4 -152814#3 -152814#2 -152814#1 -152814#0 152989 -152901#1 -152901#0 152399#3 152399#0 -152168#1 -152168#0 -152166 -152330#5 -152330#4 -152330#3 -152330#2 -152330#1 -152330#0 153637 153634#1 153636#1 152964 -152536 -152210 -152855 -152288 152325#0 152325#1 152202 152327 152205 152329 152323#1"/>
    </vehicle>
    <vehicle id="commercial_GW2-1_152" type="commercial" depart="18244" departLane="best" arrivalPos="random">
        <route edges="153452#0 153452#1 153452#2 153451#1 153451#2 153451#3 153451#4 153451#5 153451#6 153451#7 153433#1 152734#0 -152736#2 -152736#1 -152736#0 153391#0 153391#1 153392#1 153387#1 153387#2 -152628#1 -152628#0 -153384#1 -153384#0 -152177 -152176#2 -152176#1 -152176#0 -153383#0 -152250 -153385#1 -153385#0 -152251 -153412#5 -153329#5 -153329#4 -153331#11 -153331#10 -153331#9 -153331#8 -153331#7 -153331#6 -153331#5 -153331#4 -153331#2 -153331#1 -153331#0 -153415#1 -153415#0 153413#14 153413#15 153413#16 152997 152999 152706#0 152706#1 152706#2 152706#3 152701#3 152701#4 152701#5 152703 152704 152667#1 152667#2 152667#3 152667#4 152667#5 152667#6 152667#7 152667#8 152667#9"/>
    </vehicle>
    <vehicle id="commercial_3-1_110" type="commercial" depart="18269" departLane="best" arrivalPos="random">
        <route edges="-153459#0 -152256 153460 -153460 152256 153459#0 153459#1 153458#1 153005#0 153005#1 152235 153338 153641 152330#0 152330#1 152330#2 152330#3 152330#4 152330#5 152166 152168#0 152168#1 152399#1 152399#2 152901#0 152901#1 152320 152403 152538#0 152538#1 152137#2 152137#3 152137#4 152137#5 152821#0 152821#1 152821#2 152959#4 -152817#3 -152817#2 -152817#1 -152817#0 -152776 152860 152862 -152889 152885 152884#0 152884#1 152881 152882 152942"/>
    </vehicle>
    <vehicle id="commercial_1-2_342" type="commercial" depart="18277" departLane="best" arrivalPos="random">
        <route edges="152649#1 152649#2 152649#3 152649#4 152649#5 153406#0 153406#1 153406#2 152940 152684 152174#1 -152701#5 -152701#4 -152701#3 -152706#3 -152706#2 -152706#1 -152706#0 -152999 -152997 -153413#16 -153413#15 -153413#14 153415#0 153415#1 153415#2 153415#3 153415#4 153415#5 -153410#6 -153410#5 -153410#4 -153410#3 -153410#2 -153410#1 -153410#0 -153423#2 -153423#1 -153421#4 -153421#3 -153421#2"/>
    </vehicle>
    <vehicle id="commercial_3-1_160" type="commercial" depart="18286" departLane="best" arrivalPos="random">
        <route edges="-153457 153452#1 153452#2 153451#1 153451#2 153451#3 153451#4 153456#0 153456#1 153456#2 153456#3 153456#4 153456#5 153456#6 153007#6 152406 153636#1 153002#0 152838 153005#1 152235 153338 153641 152330#0 152330#1 152330#2 152330#3 152330#4 152330#5 152166 152168#0 152168#1 152399#1 152399#2 152901#0 152901#1 152320 152403 152132 152421 152895#2 152982#0 152982#1 152982#2 152982#3 -152900#1 -152900#0 152975#3 152975#4 152883#0"/>
    </vehicle>
    <vehicle id="commercial_1-3_333" type="commercial" depart="18296" departLane="best" arrivalPos="random">
        <route edges="-152693#2 -152693#1 -152693#0 152709#2 152706#1 152706#2 152706#3 -152701#2 -152701#1 -152701#0 152229 152943#0 152943#1 -152814#11 -152814#10 -152814#9 -152814#8 -152814#7 -152814#6 -152814#5 -152814#4 -152814#3 -152814#2 -152814#1 -152814#0 152989 -152901#1 -152901#0 152399#3 152399#0 -152168#1 -152168#0 -152166 -152330#5 -152330#4 -152330#3 -152330#2 -152330#1 -152330#0 153637 153634#1 153636#1 153002#0 153002#1 -153458#1 -153458#0 -153459#0 -152256 153460"/>
    </vehicle>
    <vehicle id="commercial_2-1_70" type="commercial" depart="18304" departLane="best" arrivalPos="95.23943398744188">
        <route edges="-152992 -153492 -153357#2 -153354#2 -153354#1 -153354#0 -153359#1 -153359#0 -153323#4 -153323#3 -153323#2 -153323#1 -153323#0 -153365#4 -153365#3 -153365#1 -153365#0 152346#1 152221 152585#1 152350 152582#0 152582#1 -152590#2 -152590#1 -152590#0 153491#0 153491#1 153491#2 -152313 -152592 152592 152313 -153491#2 -153491#1 -153491#0"/>
        <stop parkingArea="1107" until="43270"/>
    </vehicle>
    <vehicle id="commercial_GW2-1_177" type="commercial" depart="18316" departLane="best" arrivalPos="random">
        <route edges="153656 152283 -152555 -153357#2 -153354#2 -153354#1 -153354#0 -153359#1 -153359#0 -153323#4 -153323#3 -153323#2 -153323#1 -153323#0 -153365#4 -153365#3 -153365#1 -153365#0 152346#1 152221 152585#1 152350 152582#0 152582#1 152582#2 152582#3 152582#4 152454#2 152454#3 152454#4 -152453 -152223 -152169 -152605#2 -152605#1 -152605#0 -152667#10 -152667#9 -152667#8 -152667#7 -152667#6 -152667#5 -152667#4 -152667#3 -152667#2 -152667#1 152702#0 152702#1 -152775#5 -152775#4 -152775#3 -152775#2 -152775#0 152810#0 152810#1 152810#2 152820 152960#1 152960#2 152960#3 152960#4 152960#5 152960#6 152960#7"/>
    </vehicle>
    <vehicle id="commercial_1-GW2_125" type="commercial" depart="18319" departLane="best" arrivalPos="random">
        <route edges="152650#2 -152657#2 -152657#1 -152657#0 152667#1 152667#2 152667#3 152667#4 152667#5 152667#6 152667#7 152667#8 152667#9 152667#10 152667#11 152605#1 152605#2 152169 152223 152453 152454#1 -152582#4 -152582#3 -152582#2 -152582#1 -152582#0 152576 152219 153365#0 153365#1 153365#3 153365#4 153323#0 153323#1 153323#2 153323#3 153323#4 153359#0 153359#1 153354#0 153354#1 153354#2 153357#2 -152957 -152283 152554"/>
    </vehicle>
    <vehicle id="commercial_1-1_38" type="commercial" depart="18324" departLane="best" arrivalPos="random">
        <route edges="152875#0 152875#1 152875#2 -152398#4 -152398#3 -152398#2 -152398#1 -152398#0 152458#3 -152451 152874#1 152874#2 153638 152297#0 152297#0-AddedOffRampEdge 152297#1 152967 152816#2 152816#3 152831#0 152831#1 152831#2 152305 152312#0 152271 152423 152206 -152385 -152293 152794 152292 152800 152291 152761 152290 152286 152669#0 152669#1 152363#2 152363#3 152363#0 152664#0 152664#1 152664#2"/>
    </vehicle>
    <vehicle id="commercial_1-1_615" type="commercial" depart="18324" departLane="best" arrivalPos="random">
        <route edges="152760 -152774 152773 152772 -152763 152776 152817#0 152817#1 152817#2 152817#3 152959#5 152779 152818#0 152818#1 152818#2 152818#3 152816#0 152816#1 152816#2 152816#3 152816#4 152816#5 -152810#2 -152810#1 -152810#0 152775#0 152775#2 152775#3 152775#4 152775#5 -152702#1 -152702#0 152667#1 152667#2 152667#3 152667#4 152667#5 152667#6 152667#7 152667#8 152667#9 152667#10 152667#11 152605#1 152605#2 152602"/>
    </vehicle>
    <vehicle id="commercial_1-GW1_372" type="commercial" depart="18339" departLane="best" arrivalPos="random">
        <route edges="-152794 152293 152385 -152206 152461 152311 152312#2 -152309 152318#1 152318#2 152318#3 152139 152137#0 152138 152968 -152270 -152418 -152958 153476#1 153476#2 153476#3 153476#5 153476#6 153476#7 153476#8 153476#9 153476#10 153476#11 153476#12 153476#13 153476#14 153476#15 153476#16 153476#17 153476#18 153476#19 153476#20 153476#22 153476#23 153476#24 153476#25 153476#26 -152303 -153342 -152302 -153477#1 -153477#0 -152257 -152927 -152304 -153478"/>
    </vehicle>
    <vehicle id="commercial_1-GW2_129" type="commercial" depart="18339" departLane="best" arrivalPos="random">
        <route edges="152582#4 152454#2 152454#3 152454#4 152454#1 -152582#4 -152582#3 -152582#2 -152582#1 -152582#0 152576 152219 153365#0 153365#1 153365#3 153365#4 153323#0 153323#1 153323#2 153323#3 153323#4 153359#0 153359#1 153354#0 153354#1 153354#2 153357#2 -152957 -152283 152554"/>
    </vehicle>
    <vehicle id="commercial_1-GW2_198" type="commercial" depart="18346" departLane="best" arrivalPos="random">
        <route edges="152667#11 152605#1 152605#2 152169 152223 152453 152454#1 -152582#4 -152582#3 -152582#2 -152582#1 -152582#0 152576 152219 153365#0 153365#1 153365#3 153365#4 153323#0 153323#1 153323#2 153323#3 153323#4 153359#0 153359#1 153354#0 153354#1 153354#2 153357#2 -152957 -152283 152554"/>
    </vehicle>
    <vehicle id="commercial_1-1_53" type="commercial" depart="18347" departLane="best" arrivalPos="random">
        <route edges="152461 152311 152312#2 152312#3 -152305 152960#5 152960#6 152960#7 152960#8 -152825#1 -152825#0 -153549#2 -153549#1 -153549#0"/>
    </vehicle>
    <vehicle id="commercial_2-1_374" type="commercial" depart="18357" departLane="best" arrivalPos="random">
        <route edges="153439#2 152466#1 152943#0 152943#1 -152814#11 -152814#10 152807 152945#2 152814#11 152759 152230 152785#0 152819 152944#2 152234 152701#0 152701#1 152701#2 152701#3 152701#4 152701#5 152703 152704 152667#1 152667#2 152667#3 152667#4 152667#5 152667#6 152667#7 152667#8 152667#9 152667#10 152667#11 152605#1 152605#2 152602 -152170#1 -152170#0 -152224 152587#0 152587#1 152587#2 152587#3 152220 152579#0 152579#1 152348 152578#1 -152218 153378#0 152584"/>
    </vehicle>
    <vehicle id="commercial_1-2_81" type="commercial" depart="18374" departLane="best" arrivalPos="random">
        <route edges="152290 152286 152669#0 152669#1 152363#2 -152607 -152170#1 -152170#0 -152224 152587#0 152587#1 152587#2 152587#3 152220 152579#0 152579#1 152348 152345#0 152581#0 152581#1 152581#2 152581#3 152581#4 -152560 153363#3 153323#0 153323#1 153323#2 153323#3 153323#4 153359#0 153359#1 153354#0 153354#1 153354#2 -153357#1"/>
    </vehicle>
    <vehicle id="commercial_GW1-1_302" type="commercial" depart="18385" departLane="best" arrivalPos="random">