<?xml version="1.0" encoding="UTF-8"?>

<!--
    Monaco SUMO Traffic (MoST) Scenario
    Copyright (C) 2018
    Lara CODECA

    This program is free software: you can redistribute it and/or modify
    it under the terms of the GNU General Public License as published by
    the Free Software Foundation, either version 3 of the License, or
    (at your option) any later version.

    This program is distributed in the hope that it will be useful,
    but WITHOUT ANY WARRANTY; without even the implied warranty of
    MERCHANTABILITY or FITNESS FOR A PARTICULAR PURPOSE.  See the
    GNU General Public License for more details.

    You should have received a copy of the GNU General Public License
    along with this program.  If not, see <http://www.gnu.org/licenses/>.
-->

<routes xmlns:xsi="http://www.w3.org/2001/XMLSchema-instance" xsi:noNamespaceSchemaLocation="http://sumo.dlr.de/xsd/routes_file.xsd">
    <person id="pedestrian_PT1_1227" depart="18000.00">
        <walk edges="712#0 712#1 -720 873#0 380#0 380#1 -628#0 -628#1 -628#2 -628#3 -628#4 -628#5 641#3 641#2 605 458 572#0 573#0 573#1 573#2 573#3 1049 -593#10 593#11" busStop="155447"/> <!-- Place des Moulins -->
        <ride busStop="155443" lines="1:SaintRoman" intended="bus_1:SaintRoman.0" depart="19551.00"/> <!-- Carmes -->
        <walk edges="-505#3 1534 540#1 1035#0 1037 871#0 -866#0"/>
    </person>
    <vehicle id="pedestrian_SH2_533_0" type="shared" depart="triggered">
        <route edges="1415#8 1415#9 940#0 940#1 940#2 940#3 940#4 940#5 940#6 940#7 309#2 867#0 867#1 867#2 327#1 212 222#3 17 15#0 15#1 15#2 15#3 15#4 15#5 748#0 748#2 889#3 -744#3 -744#2 -744#1 -744#0 -703 690 -699 -700 701 -687 -690 703 744#0 744#1 744#2"/>
    </vehicle>
    <person id="pedestrian_SH2_533" depart="18009.00">
        <ride from="1415#8" to="744#2" lines="pedestrian_SH2_533_0"/>
    </person>
    <vehicle id="pedestrian_SH1_433_0" type="shared" depart="triggered">
        <route edges="1382 739#1 739#2 739#3 739#4 739#5 741#8 741#9 741#10 741#11 686 123 712#0 746 874#2 127 628#0 694#0 694#1 694#2 694#3 643 591 -702#2 -599#2 -599#1 -575#0 -604#5 -604#4 -604#3 -604#2 -604#1 -604#0 597 580#1 580#2 450#0 451#8"/>
    </vehicle>
    <person id="pedestrian_SH1_433" depart="18013.00">
        <ride from="1382" to="451#8" busStop="155400" lines="pedestrian_SH1_433_0"/> <!-- Portier -->
        <walk edges="451#8 584#1 584#0"/>
    </person>
    <person id="pedestrian_walk_586" depart="18023.00">
        <walk edges="-928#8 1338#0 -574#0 943#1 1570 1335#3 -1337#3 -1337#2 1550 -573#4 1049 593#9 593#8 1050#0 1050#1 1046#1 1046#0 -596#0 -595#0"/>
    </person>
    <person id="pedestrian_SH3_1" depart="18034.00">
        <walk edges="1275 -922#0 -1284 -467 -944#0 1433 1296#2 -1293#2 -1293#1 -1293#0 -1298#1 -1298#0 862#3 862#0 -479#6 -479#5 -479#3 -479#2 -479#1 -479#0 1311#1 1419#0 1419#1 1419#2 1419#3 -1419#4 -1419#5 -1419#6 -1419#7 508#1 254 505#0 505#1 505#2 505#3 505#4 362#2 362#3 531#0 531#1 531#2 1038 531#6 531#7 531#8 531#9 427#1 -573#6 1337#0 1135 -943#0 -943#1 -574#1 -574#2 574#3 574#4 574#5 1345#0 1593 -1357 -612#1 -620#2 -620#1 -620#0 -636#1 930 931 1497#3 1497#2 1497#1 1497#0 -1343#1 1076 901#1 901#2 901#3 901#4 901#5 740 -741#8 -741#7 1090#2 1090#1 739#1"/>
    </person>
    <person id="pedestrian_PT1_1821" depart="18053.00">
        <walk edges="-798#4 -798#3 -798#2 -798#1 -798#0 1495#3 754#0 754#1 899#0 712#2"/>
    </person>
    <person id="pedestrian_walk_1665" depart="18060.00">
        <walk edges="802#4 1587 807 15#4 15#5 -748#0 -748#2 889#2 889#1 890#11 890#8 890#7 890#6 890#5 890#4 890#3 890#2 890#1 747 868#3 868#2 737#2 1530 -869#1 -869#2 -869#4 -869#5 629#1 629#0 -593#1 -593#2 -593#3 -593#4 -593#5 -593#6 -593#7 -593#8 -593#9 -593#10 578#0 578#1 1039#0 1177 -533 531#7 866#4"/>
    </person>
    <person id="pedestrian_PT2_1740" depart="18061.00">
        <walk edges="1445#0 1415#16 1118 -126#0 -849#1 -849#0 -1407#0 234#4" busStop="155355"/> <!-- 155355 -->
        <ride busStop="155347" lines="M3:Hospital" intended="bus_M3:Hospital.0" depart="18899.00"/> <!-- 155347 -->
        <walk edges="234#8 234#9 234#10 306#1 306#2 829#0 829#1 -919 -741#0 1238 1240#2 763#1 -763#1"/>
    </person>
    <person id="pedestrian_PT1_265" depart="18069.00">
        <walk edges="-759#1 759#0 918#1 918#0 -899#5 1093#0 1093#1 1491#3 1008 -890#5 -890#4 -890#3 -890#2 -890#1 1203 -738 743#5" busStop="155411"/> <!-- Princesse Antoinette -->
        <ride busStop="155408" lines="2:Jardin" intended="bus_2:Jardin.0" depart="18918.00"/> <!-- Cremaillere -->
        <walk edges="641#2 606 -1345#2 1061 -1344#3"/>
    </person>
    <person id="pedestrian_walk_1027" depart="18076.00">
        <walk edges="875#0 1084#0 -728 -740 -901#5 -901#4 -901#3 -901#2 -901#1 -901#0 635#1 633#3 -628#3 -628#4 -628#5 641#3 641#2 641#1 -593#4 -593#5 -593#6 -593#7 1050#0 1050#1 1046#1 1046#0"/>
    </person>
    <person id="pedestrian_PT1_1150" depart="18080.00">
        <walk edges="-1586 802#3 -1587 807 15#4 15#5 15#6 -751#1 751#0 -722#1 899#5 899#4 899#3 1084#2 1084#1 1084#0 -728 -741#9"/>
    </person>
    <person id="pedestrian_walk_132" depart="18094.00">
        <walk edges="371#3 450#9 450#8 450#7 450#6 450#5 450#4 450#2 450#0 580#2 -576 -588 -192 -689 -714#2 -714#1 -714#0 868#1 868#2 868#3 747 890#1 890#2 890#3 890#4 890#5 890#6 890#7 890#8 890#11 889#1 889#2 -748#2 -748#0 15#5 15#4 807 1587 802#4 -811#2 -811#1 -806"/>
    </person>
    <person id="pedestrian_PT1_21" depart="18095.00">
        <walk edges="793 877 -795 1224#0 1150 1160#0"/>
    </person>
    <person id="pedestrian_SH3_834" depart="18099.00">
        <walk edges="-447 -319 856#4 -453 320 324#1 1374#3 1374#2 1374#1 1374#0 -1390#6 -1372#0 -1363#0 -661#0 663#2 -663#1 -663#0 1330#0 1330#1 1505#0 1505#1 1259#0 1259#1 1259#2 1259#3 1259#4 1259#5 1259#6 644#0 1166#1 1166#0 -1388#10 -1388#9 -1388#8 -1388#7 -1388#6 -1388#5 1474#7 1474#6 1474#5 1474#4 1474#3 1474#2 1474#1 1474#0 -1423#0 -1423#1 1466 1343#8 935#1 936 740 -728 1084#0"/>
    </person>
    <person id="pedestrian_PT1_431" depart="18100.00">
        <walk edges="1495#1 -754#0 -754#1 899#0 874#0 1529 868#2 -737#2 -737#1" busStop="155412"/> <!-- Kennedy | Ostende -->
        <ride busStop="155409" lines="2:Jardin" intended="bus_2:Jardin.0" depart="18988.00"/> <!-- Terrasses du Casino -->
        <walk edges="702#0 -599#2 -599#1 -575#0 -604#5 -604#4" busStop="155444"/> <!-- Place du Casino -->
        <ride busStop="155449" lines="5:Larvotto" intended="bus_5:Larvotto.0" depart="19399.00"/> <!-- Plages -->
        <walk edges="450#5 450#6 -450#7 451#1"/>
    </person>
    <vehicle id="pedestrian_SH2_391_0" type="shared" depart="triggered">
        <route edges="-1359#2 -1359#1 -1359#0 -1326#6 -1326#5 -553#0 -1323#5 -1323#4 -1323#3 -1323#2 -1323#1 -1323#0 148 1325 -1322#0 -149 -1324#1 -1324#0 -150 -1351#5 -1261#5 -1261#4 -1263#11 -1263#10 -1263#9 -1263#8 -1263#7 -1263#6 -1263#5 -1263#4 -1263#2 -1263#1 -1263#0 -1354#1 -1354#0 1352#14 1352#15 1352#16 929 931 633#0 633#1 633#2 -635#1 -635#0 901#1 901#2 901#3 901#4"/>
    </vehicle>
    <person id="pedestrian_SH2_391" depart="18110.00">
        <ride from="-1359#2" to="901#4" lines="pedestrian_SH2_391_0"/>
    </person>
    <person id="pedestrian_PT2_667" depart="18113.00">
        <walk edges="-467 -944#0" busStop="155384"/> <!-- Carnoles -->
        <ride busStop="155382" lines="M0:Italy" intended="train_M0:Italy.0" depart="18396.00"/> <!-- Monaco - Monte Carlo -->
        <walk edges="712#1 -746 874#1 1529 868#3 747" busStop="155378"/> <!-- Place Sainte-Devote (Gare) -->
        <ride busStop="155391" lines="100:Nice" intended="bus_100:Nice.0" depart="20320.00"/> <!-- Place d'Armes (TAM) -->
        <walk edges="-748#2 -748#0 15#5 15#4 807 1587 802#4 802#5 1180#0 1180#1 1180#2 1229#1 1161 1225"/>
    </person>
    <person id="pedestrian_PT2_1992" depart="18118.00">
        <walk edges="-1366#11 -836#6" busStop="155358"/> <!-- 155358 -->
        <ride busStop="155340" lines="M3:Turbie" intended="bus_M3:Turbie.0" depart="18654.00"/> <!-- 155340 -->
        <walk edges="-234#8 -938#3 -938#2 -938#1 1142#0 -830#0 -940#7 1130 -823#0 -1415#0 454#0" busStop="155505"/> <!-- Cimetiere -->
        <ride busStop="155360" lines="100:Menton" intended="bus_100:Menton.1" depart="20954.00"/> <!-- Monte-Carlo (TAM) | Monte-Carlo (Tourisme) -->
        <walk edges="593#3 593#2 593#1 -629#0 -615#2 1183#1 1183#0 702#4 702#3 702#2 702#0 -697"/>
    </person>
    <person id="pedestrian_PT2_1697" depart="18127.00">
        <walk edges="820#1 -820#0 763#0 763#1 763#2 763#3 1103#0 1103#1 1083 798#2 1092 -899#4 1093#0 1093#1 1491#3 1008 -890#6 -693#0 -693#1 -711#0"/>
    </person>
    <person id="pedestrian_SH2_844" depart="18175.00">
        <walk edges="-1381#1 1554#1 1568 -1386 1382 739#1 1089 -741#5 1098 798#1 1092 899#4"/>
    </person>
    <person id="pedestrian_walk_438" depart="18181.00">
        <walk edges="-734 -875#2 -741#11 873#1 873#0 380#0 380#1 -628#0 -628#1 -628#2 -628#3 -628#4 -628#5 641#3 641#2 605 458 572#0 573#0 573#1 573#2 573#3 1049 -593#10 -530#0 -530#1 -530#2 535#0 535#1 -531#0 362#3 362#2 505#4 505#3 505#2 -513#2"/>
    </person>
    <person id="pedestrian_PT2_504" depart="18202.00">
        <walk edges="628#1 -694#0 1097 -869#1 1530 737#2 868#2 868#3 747 890#1 890#2 890#3 890#4 890#5 890#6 890#7 890#8 890#11 889#1 889#2 -748#2 -748#0 15#5 15#4 807 1587 802#4 -811#2 -811#1 -811#0 906#1 906#2 828#0 828#1 -913#4 -913#0"/>
    </person>
    <vehicle id="pedestrian_SH3_510_0" type="shared" depart="triggered">
        <route edges="-1528 -1516#0 317#1 317#2 317#3 234#0 234#1 234#2 234#3 234#4 234#5 234#6 234#7 234#8 234#9 234#10 306#1 306#2 829#0 829#1 919 741#0 741#1 741#2 741#3 741#4 741#5 741#6 741#7 741#8 741#9 741#10 741#11 686 123 712#0 746 874#2 127 628#0 694#0 694#1 694#2 694#3 643"/>
    </vehicle>
    <person id="pedestrian_SH3_510" depart="18239.00">
        <ride from="-1528" to="643" lines="pedestrian_SH3_510_0"/>
    </person>
    <vehicle id="pedestrian_SH1_191_0" type="shared" depart="triggered">
        <route edges="750#1 750#2 750#3 719#0 719#1 -759#0 -918#1 -918#0 -899#5 -899#4 -899#3 -899#2 -899#1 -899#0 874#0 874#1 874#2 127 628#0 628#1 628#2 628#3 628#4 628#5 630 631 593#1 593#2 593#3 593#4 593#5 593#6 593#7 593#8 593#9 593#10 593#11 530#1 530#2 530#3 116 361 362#1 -505#4 -505#3"/>
    </vehicle>
    <person id="pedestrian_SH1_191" depart="18258.00">
        <ride from="750#1" to="-505#3" busStop="155443" lines="pedestrian_SH1_191_0"/> <!-- Carmes -->
        <walk edges="-505#3 1534 540#1 1035#0 1035#1 871#2 1553#0 1553#1"/>
    </person>
    <person id="pedestrian_PT2_772" depart="18268.00">
        <walk edges="1415#12 1401#5 -838 1143 -840#2 -840#3 -840#4 -840#5 -840#6 -840#7 -840#8 -913#1 914" busStop="155520"/> <!-- Stade Louis II -->
        <ride busStop="155360" lines="6:Larvotto" intended="bus_6:Larvotto.0" depart="19142.00"/> <!-- Monte-Carlo (TAM) | Monte-Carlo (Tourisme) -->
        <ride busStop="155379" lines="4:SaintRoman" intended="bus_4:SaintRoman.0" depart="19693.00"/> <!-- Saint-Charles -->
        <walk edges="-593#7 1044 -601#1 590#4 1532 -586#1"/>
    </person>
    <person id="pedestrian_walk_782" depart="18272.00">
        <walk edges="1085#0 1085#1 918#0 -899#5 1093#0 1093#1 1491#3 1008 890#5 890#4 890#3 890#2 890#1 747 868#3 868#2 737#2 737#1 737#0 -702#0 -599#2 -599#1 -575#0 604#5 -594#0"/>
    </person>
    <person id="pedestrian_PT1_1169" depart="18282.00">
        <walk edges="1530 737#2 868#2 1529 874#0 899#0 -754#1 1084#1 1084#0 728 741#8 741#7"/>
    </person>
    <person id="pedestrian_walk_596" depart="18283.00">
        <walk edges="1530 737#2 868#2 868#3 747 890#1 890#2 890#3 890#4 890#5 890#6 890#7 890#8 890#11 889#1 889#2 -748#2 -748#0 15#5 15#4 807 1587 802#4 -811#2 -811#1 -811#0 906#1 906#2 -828#0 -828#1 913#3"/>
    </person>
    <person id="pedestrian_PT1_2159" depart="18295.00">
        <walk edges="-720 712#2 899#0 -899#1 -1491#0 -1491#1 -1491#2 -1491#3 1008 890#6 693#0 1207"/>
    </person>
    <person id="pedestrian_PT2_717" depart="18297.00">
        <walk edges="-1354#4 1438#2 1354#2 1594 -1352#15 1074 -633#0 -633#1 642 638#0 638#1"/>
    </person>
    <person id="pedestrian_PT2_2120" depart="18303.00">
        <walk edges="969 -1259#10 -1259#9 -1259#8 -1259#7 644#0 644#1 -658 429 1465 -1381#4 1140 1464#1 1343#5 1343#4 1343#3 1343#2 1343#1 -1497#0 1497#1 1497#2 1497#3 931 930 -636#1 -620#0 -620#1 -620#2 -612#1 -1357 1593 1068 1462"/>
    </person>
    <person id="pedestrian_PT1_589" depart="18305.00">
        <walk edges="539 451#2 451#3 451#4 451#6 451#8" busStop="155400"/> <!-- Portier -->
        <ride busStop="155377" lines="5:Hopital" intended="bus_5:Hopital.0" depart="19056.00"/> <!-- Place du Casino -->
        <walk edges="604#5 575#0 599#1 599#2 702#2 591" busStop="155381"/> <!-- Square Beaumarchais -->
        <ride busStop="155436" lines="6:Fontvieille" intended="bus_6:Fontvieille.0" depart="19437.00"/> <!-- Place d'Armes (Port) -->
        <walk edges="729 -745#0 706 889#4 744#3 1082#0 1082#1 31#4 31#3 34#2 808#1"/>
    </person>
    <person id="pedestrian_PT1_1643" depart="18310.00">
        <walk edges="450#5 450#4 450#2 451#8 580#4 596#3 1492 604#0" busStop="155369"/> <!-- Spelugues -->
        <ride busStop="155521" lines="5:Hopital" intended="bus_5:Hopital.0" depart="19120.00"/> <!-- Belgique -->
        <walk edges="-875#2 -734 741#9 741#8 741#7 1090#2 1090#1 1090#0 -757#0"/>
    </person>
    <person id="pedestrian_PT2_87" depart="18316.00">
        <walk edges="-1311#0 -1311#1 -1419#0 1023#0 1023#1 1021 1132 -504#2 -504#1 209#1 500#4 -23 -1314#1 -1314#2 -109 255#3 255#2 255#0 371#5 371#4 371#3 450#9 450#8 450#7 450#6 -450#5"/>
    </person>
    <person id="pedestrian_PT1_69" depart="18324.00">
        <walk edges="1491#0 -899#1 -899#0 874#0 874#1 746"/>
    </person>
    <person id="pedestrian_PT2_974" depart="18335.00">
        <walk edges="1313#12 1555 1134#1 -1318 -573#6 -573#5 -573#4 -573#3 -573#2 573#1 573#0 572#0 458 605 641#2" busStop="155408"/> <!-- Cremaillere -->
        <ride busStop="155365" lines="2:Jardin" intended="bus_2:Jardin.0" depart="19199.00"/> <!-- Pont Sainte-Devote -->
        <ride busStop="155364" lines="4:Fontvieille" intended="bus_4:Fontvieille.0" depart="19444.00"/> <!-- Honore II -->
        <walk edges="-722#1 751#0 -751#1 15#6 15#5 15#4 807 1587" busStop="155406"/> <!-- Fontvieille - Centre Commercial -->
        <ride busStop="155420" lines="6:Larvotto" intended="bus_6:Larvotto.1" depart="20057.00"/> <!-- Papalins -->
        <walk edges="359 369#2 305#0 1107 169"/>
    </person>
    <vehicle id="pedestrian_SH2_63_0" type="shared" depart="triggered">
        <route edges="1419#3 1419#4 1419#5 1419#6 1419#7 508#1 254 505#0 505#1 505#2 505#3 505#4 362#2 362#3 362#4 -361 -116 -530#3 -530#2 -530#1 -530#0 -593#10 -593#9 -593#8 -593#7 -593#6 -593#5 -593#4 -593#3 -593#2 -593#1 629#0 629#1 -702#5 -702#4 -702#3 -702#2 -702#0 737#0 737#1 737#2 868#2 868#3 747 890#1 890#2 890#3 890#4 890#5 890#6 890#7 890#8 890#11 889#1 889#2 889#3 -744#3 -744#2 -744#1 -744#0 -703 690 -699 -700 -786 -804 -816 877"/>
    </vehicle>
    <person id="pedestrian_SH2_63" depart="18361.00">
        <ride from="1419#3" to="877" lines="pedestrian_SH2_63_0"/>
    </person>
    <vehicle id="pedestrian_SH2_158_0" type="shared" depart="triggered">
        <route edges="1526 1527#1 -1528 -1516#0 317#1 317#2 317#3 234#0 234#1 234#2 234#3 234#4 234#5 234#6 234#7 234#8 234#9 234#10 306#1 306#2 829#0 829#1 919 741#0 741#1 741#2 741#3 741#4 741#5 741#6 741#7 741#8 741#9 741#10 741#11 686 123 712#0 746 874#2 127 628#0"/>
    </vehicle>
    <person id="pedestrian_SH2_158" depart="18365.00">
        <ride from="1526" to="628#0" busStop="155397" lines="pedestrian_SH2_158_0"/> <!-- Pont Sainte-Devote -->
        <walk edges="628#0 -628#1 1058#2 1058#1 1058#0"/>
    </person>
    <person id="pedestrian_PT2_1951" depart="18375.00">
        <walk edges="-1259#2 -1259#3 -1259#4 -1259#5 -1259#6 644#0 1166#1 1166#0 -1388#10 -1388#9 990#0 990#1 990#2 990#3 1478 1100#0 1100#1 1100#2 1540#1 1540#0 763#4 763#5"/>
    </person>
    <person id="pedestrian_walk_1698" depart="18386.00">
        <walk edges="-580#1 -576 -588 -192 -689 -714#2 -714#1 -714#0 868#1 868#2 868#3 747 890#1 890#2 890#3 890#4 890#5 1008 1491#3 1093#1 1093#0 -899#4 1092 798#2 1083 741#3 741#2 741#1 741#0"/>
    </person>
    <person id="pedestrian_walk_624" depart="18388.00">
        <walk edges="1497#2 1058#0 1058#1 1058#2 628#1 -694#0 1097 -869#1 1530 737#2 868#2 868#3 747 890#1 890#2 890#3 890#4 890#5 890#6 890#7 890#8 890#11 889#1 889#2 -748#2 -748#0 15#5 15#4 807 1587 802#4 802#5 1180#0 1180#1 -303#1 -303#0 801#2"/>
    </person>
    <person id="pedestrian_walk_1256" depart="18388.00">
        <walk edges="309#0 -827#0 -827#1 -827#2 -204 798#5 798#4 798#3 798#2 -798#1 -798#0 1495#3 875#0"/>
    </person>
    <person id="pedestrian_PT1_1814" depart="18446.00">
        <walk edges="737#1 -737#1" busStop="155412"/> <!-- Kennedy | Ostende -->
        <ride busStop="155361" lines="1:SaintRoman" intended="bus_1:SaintRoman.0" depart="18810.00"/> <!-- Portier -->
        <walk edges="580#2 580#3 581 595#0 595#1 268#1"/>
    </person>
    <person id="pedestrian_PT1_264" depart="18477.00">
        <walk edges="-798#2 -798#3 -798#4 -798#5 204 827#2 827#1 827#0 309#2 940#7 1130 -823#0 -888"/>
    </person>
    <person id="pedestrian_PT2_2013" depart="18489.00">
        <walk edges="1320#3 1320#4 1320#5 1320#6 1320#7 -1322#1 1325 148 -1323#0 -1323#1 -260#0 1040#0 1040#1 -514#0 1452 514#4 1034#2 -1313#14 861#0 861#4 1338#1 1338#0 574#0 574#1 574#2 574#3 574#4 574#5 1345#0 1593 -1357 -612#1 620#2 -405#5 -639 638#1 638#2 638#3 -628#3" busStop="155415"/> <!-- Roqueville -->
        <ride busStop="155416" lines="2:Jardin" intended="bus_2:Jardin.2" depart="21680.00"/> <!-- Moneghetti -->
        <walk edges="-741#7 741#8 728 1084#0"/>
    </person>
    <vehicle id="pedestrian_SH2_754_0" type="shared" depart="triggered">
        <route edges="-1388#6 -1388#5 -1388#4 -1388#3 -1388#2 -1388#1 -1388#0 -1379#2 -1379#1 -1380#3 -1380#2 -1380#1 1382 739#1 739#2 739#3 739#4 739#5 741#8 728 709 1495#2 1495#3 754#0 754#1 899#1 1491#0 1491#1 1491#2 1491#3 752#0 752#1 890#11 889#1 889#2 889#3 889#4 706 745#0 745#1 745#2 745#3 745#4 743#0 743#1 743#2 743#3 758#0"/>
    </vehicle>
    <person id="pedestrian_SH2_754" depart="18490.00">
        <ride from="-1388#6" to="758#0" lines="pedestrian_SH2_754_0"/>
    </person>
    <vehicle id="pedestrian_SH2_493_0" type="shared" depart="triggered">
        <route edges="-1415#1 -1415#0 326 173 327#0 327#1 212 222#3 222#4 213 216#3 -208 890#5 890#6 890#7 890#8 -752#1 -752#0 -1491#3 -1491#2 -1491#1 -1491#0 899#2 899#3 899#4 899#5 918#0 918#1 759#0 759#1 759#2 759#3 750#0 750#1 750#2"/>
    </vehicle>
    <person id="pedestrian_SH2_493" depart="18491.00">
        <ride from="-1415#1" to="750#2" lines="pedestrian_SH2_493_0"/>
    </person>
    <person id="pedestrian_PT2_196" depart="18495.00">
        <walk edges="871#3 871#2 1035#1 1035#0 -540#1 -540#0 362#3 -531#0 535#1 535#0 -530#2 1032 -531#4" busStop="155442"/> <!-- La Rousse -->
        <ride busStop="155408" lines="4:Fontvieille" intended="bus_4:Fontvieille.0" depart="19061.00"/> <!-- Cremaillere -->
        <walk edges="641#2 -611 1069 1065 -612#3 -623 405#5 1075#0 1075#1"/>
    </person>
    <person id="pedestrian_walk_30" depart="18516.00">
        <walk edges="708 643 869#4 869#2 869#1 1530 737#2 868#2 1529 874#0 899#0 -754#1 1084#1"/>
    </person>
    <person id="pedestrian_PT2_2159" depart="18518.00">
        <walk edges="1602 -1357 -612#1 620#2 -405#5 -639 638#0 642 -633#2 633#3"/>
    </person>
    <person id="pedestrian_PT2_1234" depart="18521.00">
        <walk edges="1431#0 -513#0 -513#1 -513#2 505#1 505#0" busStop="155481"/> <!-- Saint-Roman -->
        <ride busStop="155452" lines="4:Fontvieille" intended="bus_4:Fontvieille.0" depart="18867.00"/> <!-- Saint-Charles -->
        <walk edges="-579 -600 1565 -593#6 1044 -601#1 590#4"/>
    </person>
    <person id="pedestrian_walk_42" depart="18528.00">
        <walk edges="-792 419 1228#2 1228#1 1152#4 1152#3 1152#2 1152#1 1152#0 -805 33#2 31#4 1082#1 1199 744#1 1094#1 1094#0 295#0 -745#4 -743#0 -743#1 743#2 743#3 743#4 743#5 868#0 868#1 -737#2 1530 -869#1 1097 694#1 -707 628#3 638#3 638#2 638#1 -639 -405#5 1075#0 1075#1 1075#2 1352#12"/>
    </person>
    <person id="pedestrian_PT1_1084" depart="18546.00">
        <walk edges="532#1 268#3 268#0 590#0 590#1 1533 -593#9 -579" busStop="155452"/> <!-- Saint-Charles -->
        <ride busStop="155408" lines="4:Fontvieille" intended="bus_4:Fontvieille.0" depart="19213.00"/> <!-- Cremaillere -->
        <walk edges="641#2 -611 1069 1065 -612#3 -612#2 -612#1 -612#0 1075#2"/>
    </person>
    <person id="pedestrian_SH2_253" depart="18566.00">
        <walk edges="429 1465 -1381#4 1140 1464#1 1343#5 -1356 607#1 -935#1 -936 -740 -728 1084#0 1084#1 1084#2 899#3 899#4 899#5 -722#1 735 889#2 889#3 -744#3 1082#0 1082#1"/>
    </person>
    <person id="pedestrian_SH2_471" depart="18575.00">
        <walk edges="916 120 647#2 647#1 647#0 -1362#3 1349#0 1188 1056#1 1056#0 1343#2 1076 -901#1 -901#2 -901#3 -901#4 -901#5 -740 -728 1084#0 1084#1 1084#2 899#3 899#4 899#5 918#0 918#1 759#0 -759#0"/>
    </person>
    <person id="pedestrian_PT1_130" depart="18580.00">
        <walk edges="531#4 -531#4" busStop="155442"/> <!-- La Rousse -->
        <ride busStop="155380" lines="1:Monaco" intended="bus_1:Monaco.0" depart="18639.00"/> <!-- Monte-Carlo -->
        <walk edges="629#1 629#0 631 630 628#5 628#4 -628#3" busStop="155415"/> <!-- Roqueville -->
        <ride busStop="155416" lines="2:Jardin" intended="bus_2:Jardin.0" depart="19280.00"/> <!-- Moneghetti -->
        <walk edges="-741#7 741#8 728 1084#0"/>
    </person>
    <vehicle id="pedestrian_SH2_735_0" type="shared" depart="triggered">
        <route edges="1379#2 1379#3 1379#4 1379#5 1379#6 -154#1 -154#0 -1362#4 -1362#3 1349#0 1349#1 1349#2 1349#3 1349#4 1349#5 1349#6 1349#7 1349#8 1349#9 -1263#2 -1263#1 -1263#0 -1354#1 -1354#0 1352#14 1352#15 1352#16 929 931 633#0 633#1 633#2 633#3 628#3 628#4 628#5 630 631 583#0 583#1 583#2 -604#5 -604#4 -604#3 -604#2 -604#1 -604#0 597 580#1 580#2 450#0 450#2 450#4 450#5 450#6 450#7 450#8 450#9 371#3 251#0"/>
    </vehicle>
    <person id="pedestrian_SH2_735" depart="18585.00">
        <ride from="1379#2" to="251#0" lines="pedestrian_SH2_735_0"/>
    </person>
    <person id="pedestrian_PT1_186" depart="18596.00">
        <walk edges="625 -608 574#3 574#4 574#5 1345#0 1593 -1357 -612#1 620#2 -405#5 -639 638#1 638#2 638#3 -628#3" busStop="155415"/> <!-- Roqueville -->
        <ride busStop="155365" lines="2:Jardin" intended="bus_2:Jardin.0" depart="19280.00"/> <!-- Pont Sainte-Devote -->
        <ride busStop="155417" lines="4:Fontvieille" intended="bus_4:Fontvieille.0" depart="19444.00"/> <!-- Louis Aureglia -->
        <walk edges="899#1 899#0 874#0"/>
    </person>
    <vehicle id="pedestrian_SH3_15_0" type="shared" depart="triggered">
        <route edges="-1280#0 922#1 467 -924 -1433 -1296#2 -1293#2 -1293#1 -1293#0 -1298#1 -1298#0 862#3 862#0 -479#6 -479#5 -479#3 -479#2 -479#1 -479#0 1311#1 1419#0 1419#1 1419#2 1419#3 1419#4 1419#5 1419#6 1419#7 508#1 254 505#0 505#1 505#2 505#3 505#4 362#2 362#3 362#4 -361 -116 -530#3 -530#2 -530#1 -530#0 -593#10 -593#9 -593#8 -593#7 -593#6 -593#5 -593#4 -594#2 -594#1 -594#0 -604#4 -604#3 586#0 586#1 -589"/>
    </vehicle>
    <person id="pedestrian_SH3_15" depart="18604.00">
        <ride from="-1280#0" to="-589" lines="pedestrian_SH3_15_0"/>
    </person>
    <vehicle id="pedestrian_SH1_614_0" type="shared" depart="triggered">
        <route edges="791 796 864 733 -730 -726 -701 700 699 -690 703 744#0 744#1 744#2 744#3 889#4 706 745#0 745#1 745#2 745#3 745#4 743#0 743#1 743#2 743#3 743#4 743#5 868#0 868#1 -737#2 -737#1 -737#0 702#0 702#2 702#3 702#4 702#5 -629#1 -629#0 593#1 593#2 593#3 593#4 593#5 593#6 593#7 593#8 593#9 593#10 593#11 530#1 530#2 535#0 542 531#2 531#3 531#4 531#5 531#6"/>
    </vehicle>
    <person id="pedestrian_SH1_614" depart="18611.00">
        <ride from="791" to="531#6" lines="pedestrian_SH1_614_0"/>
    </person>
    <vehicle id="pedestrian_SH3_48_0" type="shared" depart="triggered">
        <route edges="-1285 138 459 922#1 467 -924 -1433 -1296#2 -1293#2 -1293#1 -1293#0 -1298#1 -1298#0 862#3 862#0 -479#6 -479#5 -479#3 -479#2 -479#1 -479#0 1311#1 1419#0 1419#1 1419#2 1419#3 1419#4 1419#5 1419#6 1419#7 508#1 254 505#0 505#1 505#2 505#3 505#4 362#2 362#3 362#4 -361 -116 -530#3 -530#2 -530#1 -530#0 -593#10 -593#9 -593#8 -593#7 -593#6 -593#5 -593#4 641#1 641#2 641#3 -628#5 -628#4 -628#3 -633#3 -633#2 -633#1 -633#0 -931 -1497#3 -1497#2 -1497#1 -1497#0 1343#1"/>
    </vehicle>
    <person id="pedestrian_SH3_48" depart="18617.00">
        <ride from="-1285" to="1343#1" lines="pedestrian_SH3_48_0"/>
    </person>
    <person id="pedestrian_PT1_2210" depart="18624.00">
        <walk edges="-450#5 451#4 451#6" busStop="155426"/> <!-- Grimaldi Forum/Villa Sauber -->
        <ride busStop="155400" lines="5:Hopital" intended="bus_5:Hopital.0" depart="18995.00"/> <!-- Portier -->
        <walk edges="451#8 584#1 584#0"/>
    </person>
    <vehicle id="pedestrian_SH3_647_0" type="shared" depart="triggered">
        <route edges="922#1 467 -924 -1433 -1296#2 -1293#2 -1293#1 -1293#0 -1298#1 -1298#0 862#3 862#0 -479#6 -479#5 -479#3 -479#2 -479#1 -479#0 1311#1 1419#0 1419#1 1419#2 1419#3 1419#4 1419#5 1419#6 1419#7 508#1 254 505#0 505#1 505#2 505#3 505#4 362#2 362#3 362#4 -361 -116 -530#3 -530#2 -530#1 -530#0 -593#10 -593#9 -593#8 -593#7 -593#6 -593#5 -593#4 641#1 641#2 641#3 -628#5 -628#4 -628#3 -628#2 -628#1 -628#0 122 873#0 873#1 -741#11 -875#2 -875#1 -875#0 1495#1 1495#2 798#0 798#1 798#2 798#3 798#4 798#5 -204 -827#2 -827#1 -827#0 867#0 867#1 867#2"/>
    </vehicle>
    <person id="pedestrian_SH3_647" depart="18638.00">
        <ride from="922#1" to="867#2" lines="pedestrian_SH3_647_0"/>
    </person>
    <person id="pedestrian_walk_1611" depart="18661.00">
        <walk edges="-739#5 -741#8 728 1084#0 1084#1 -754#1 899#0 874#0 874#1"/>
    </person>
    <person id="pedestrian_PT1_533" depart="18669.00">
        <walk edges="720 712#1 -746 874#1 1529 868#2 868#1 -714#0 714#1 328 1490#1 1490#2 1493"/>
    </person>
    <person id="pedestrian_PT1_1646" depart="18670.00">
        <walk edges="875#1 1084#1 1084#2 899#3 899#4 899#5 -722#1 735 889#2 889#3 -744#3 1082#0 1082#1 32#1 37#4 37#3 34#1"/>
    </person>
    <person id="pedestrian_walk_759" depart="18685.00">
        <walk edges="1035#0 -540#1 -540#0 362#3 -531#0 535#1 411 404 -532#0"/>
    </person>
    <person id="pedestrian_PT1_860" depart="18687.00">
        <walk edges="-1319#4 -1319#3 22 1453#0 -871#3 871#2 1035#1 1035#0 -540#1 -540#0 362#3 -531#0 535#1 535#0 -530#2 -530#1 -530#0" busStop="155446"/> <!-- Place des Moulins -->
        <ride busStop="155380" lines="1:Monaco" intended="bus_1:Monaco.1" depart="19928.00"/> <!-- Monte-Carlo -->
        <walk edges="629#1 629#0 631 630 628#5 628#4 628#3 -633#3 -633#2 633#1 633#0 931 -1497#3"/>
    </person>
    <person id="pedestrian_SH3_41" depart="18694.00">
        <walk edges="-922#0 -1284 -467 -944#0 1433 1296#2 -1293#2 -1293#1 -1293#0 -1298#1 -1298#0 862#2 1255#4 1255#3 1255#2 1131 1302#2 481 -504#4 1538 1027#1 -500#3 -500#4 1489 -1314#2 -109 255#3 255#2 255#0 371#5 371#4 371#3 450#9 450#8 450#7 450#6 450#5 450#4 450#2 450#0 580#2 -576 -588 -192 -689 -714#2 -714#1 -714#0 868#0 743#5 743#4 743#3 743#2 -743#1 -743#0 -745#4 295#0 1094#0 1094#1 744#1 1199 1082#1 31#4 31#3 34#2 -808#0 36#1 36#0 1111#4 1220#1"/>
    </person>
    <vehicle id="pedestrian_SH3_52_0" type="shared" depart="triggered">
        <route edges="-1432 -1275 -1280#0 922#1 467 -924 -1433 -1296#2 -1293#2 -1293#1 -1293#0 -1298#1 -1298#0 862#3 862#0 -479#6 -479#5 -479#3 -479#2 -479#1 -479#0 1311#1 1419#0 1419#1 1419#2 1419#3 1419#4 1419#5 1419#6 1419#7 508#1 254 505#0 505#1 505#2 505#3 505#4 362#2 362#3 362#4 -361 -116 -530#3 -530#2 -530#1 -530#0 -593#10 -593#9 -593#8 -593#7 -593#6 -593#5 -593#4 641#1 641#2 641#3 -628#5 -628#4 -628#3 -628#2 -628#1 -628#0 122 873#0 873#1 -741#11 -741#10 -741#9 -741#8 -741#7 -741#6 -741#5 -741#4 -741#3 -763#6 -763#5 -763#4 -763#3 -763#2 -763#1 -763#0"/>
    </vehicle>
    <person id="pedestrian_SH3_52" depart="18694.00">
        <ride from="-1432" to="-763#0" lines="pedestrian_SH3_52_0"/>
    </person>
    <person id="pedestrian_PT1_741" depart="18700.00">
        <walk edges="-742 -728 1084#0 1084#1 1084#2 899#3 899#4 899#5 -722#1 735 889#2 889#3 -744#3"/>
    </person>
    <person id="pedestrian_walk_1506" depart="18711.00">
        <walk edges="198#1 1094#0 295#0 745#3 -745#2 -745#1 -745#0 -706 889#0 890#11 752#1 752#0 1491#3 1093#1 1093#0 -899#4 1092 798#2 1083 1103#1 1103#0 763#3 763#2 763#1 763#0 -820#0 820#1"/>
    </person>
    <person id="pedestrian_PT2_1954" depart="18733.00">
        <walk edges="-1352#12 1062 1190#1 -636#1 -620#0 1059 638#0 638#1 638#2 638#3 -628#3" busStop="155415"/> <!-- Roqueville -->
        <ride busStop="155365" lines="2:Jardin" intended="bus_2:Jardin.0" depart="19280.00"/> <!-- Pont Sainte-Devote -->
        <ride busStop="155436" lines="4:Fontvieille" intended="bus_4:Fontvieille.0" depart="19444.00"/> <!-- Place d'Armes (Port) -->
        <walk edges="729 -13#0 -13#1 -1205#1 1205#2"/>
    </person>
    <vehicle id="pedestrian_SH1_896_0" type="shared" depart="triggered">
        <route edges="-531#8 -531#7 -531#6 -531#5 -531#4 -531#3 -531#2 -542 -535#0 -530#2 -530#1 -530#0 -593#10 -593#9 -593#8 -593#7 -593#6 -593#5 -593#4 641#1 641#2 641#3 -628#5 -628#4 -628#3 -628#2 -628#1 -628#0 122 873#0 873#1 -741#11 -741#10 -741#9 -741#8 -739#5 -739#4 -739#3 -739#2 -739#1 -739#0 1380#1 1385 757#1 757#2 763#5 763#6"/>
    </vehicle>
    <person id="pedestrian_SH1_896" depart="18733.00">