<?xml version="1.0" encoding="UTF-8"?>
<!-- generated on 2018-08-09 15:13:29.076458 by $Id$
  options: -n /home/drone/EURECOM/Projects/GITHUB/MoSTScenario/scenario/in/most.net.xml -b 14400 -e 50400 -p 1200 <doubleminus>random-begin <doubleminus>seed 42 <doubleminus>no-vtypes <doubleminus>ptstops /home/drone/EURECOM/Projects/GITHUB/MoSTScenario/scenario/in/add/most.busstops.add.xml <doubleminus>ptlines pt/most.buslines.add.xml -o out/most.buses.flows.xml
-->
<routes xmlns:xsi="http://www.w3.org/2001/XMLSchema-instance" xsi:noNamespaceSchemaLocation="http://sumo.dlr.de/xsd/routes_file.xsd">
    <route id="bus_M2:France" edges="-13817 -13980#0 -14507#0 -14525#6 -14525#5 -14525#4 -14525#3 -14525#2 -14525#1 -14525#0 -14526#1 14531 -14533#0 -13326 14534" >
        <stop busStop="117950" duration="30.00" until="37.0"/> <!-- La Turbie Marie -->
        <stop busStop="117954" duration="30.00" until="415.0"/> <!-- 117954 -->
    </route>
    <route id="bus_M4:Train" edges="14550#13 14550#14 14550#15 14550#16 14550#17 14550#18 14550#19 14550#20 13991#0 -13994 -14084#0 -13992#2" >
        <stop busStop="117966" duration="30.00" until="60.0"/> <!-- L'Eglise -->
        <stop busStop="117964" duration="30.00" until="135.0"/> <!-- La Source -->
        <stop busStop="117821" duration="30.00" until="226.0"/> <!-- Les Cigognes -->
        <stop busStop="117981" duration="30.00" until="284.0"/> <!-- Bois Joli -->
    </route>
    <route id="bus_M4:HotelVille" edges="13992#2 14084#0 13994 -13991#0 -14550#20 -14550#19 -14550#18 -14550#17 -14550#16 -14550#15 -14550#14 -14550#13" >
        <stop busStop="117813" duration="30.00" until="44.0"/> <!-- Bois Joli -->
        <stop busStop="117982" duration="30.00" until="104.0"/> <!-- Les Cigognes -->
        <stop busStop="117963" duration="30.00" until="187.0"/> <!-- Guillaume Apollinaire -->
        <stop busStop="117965" duration="30.00" until="264.0"/> <!-- L'Eglise -->
        <stop busStop="117967" duration="30.00" until="329.0"/> <!-- Hotel de Ville -->
    </route>
    <route id="bus_M1:France" edges="13999 13327 14551#0 -13975 -14532#0 -14533#0 -13326 14534" >
        <stop busStop="117958" duration="30.00" until="74.0"/> <!-- Parking Saint-Laurent d'Eze -->
        <stop busStop="117817" duration="30.00" until="244.0"/> <!-- Chapelle de Saint-Laurent -->
        <stop busStop="117954" duration="30.00" until="627.0"/> <!-- 117954 -->
    </route>
    <route id="bus_M1:Eze" edges="-14534 13326 14533#0 14533#1 13975 -14551#0 -13327 -13999" >
        <stop busStop="117953" duration="30.00" until="41.0"/> <!-- 117953 -->
        <stop busStop="117948" duration="30.00" until="437.0"/> <!-- Chapelle de Saint-Laurent -->
        <stop busStop="117957" duration="30.00" until="590.0"/> <!-- Parking Saint-Laurent d'Eze -->
    </route>
    <route id="bus_M2:Turbie" edges="-14534 13326 14533#0 -14531 14526#1 14526#2 14525#1 14525#2 14525#3 14525#4 14525#5 14525#6 14525#7 13980#0" >
        <stop busStop="117953" duration="30.00" until="41.0"/> <!-- 117953 -->
        <stop busStop="117816" duration="30.00" until="409.0"/> <!-- La Turbie Marie -->
    </route>
    <route id="bus_M5:PontUnion" edges="14067#0 14067#1 13309 14431#0 14431#1 14431#2 -14031 -13353 13626" >
        <stop busStop="117944" duration="30.00" until="64.0"/> <!-- Ramingao -->
        <stop busStop="117941" duration="30.00" until="147.0"/> <!-- 2e Escalier -->
        <stop busStop="117939" duration="30.00" until="207.0"/> <!-- 1er Escalier -->
        <stop busStop="117937" duration="30.00" until="290.0"/> <!-- Massolin -->
        <stop busStop="117864" duration="30.00" until="393.0"/> <!-- Cypris -->
        <stop busStop="117863" duration="30.00" until="462.0"/> <!-- Orchidees -->
        <stop busStop="117861" duration="30.00" until="601.0"/> <!-- Victoria -->
        <stop busStop="117980" duration="30.00" until="688.0"/> <!-- Pont de l'Union -->
    </route>
    <route id="bus_M5:Ramingao" edges="14732 13353 -13627 -14431#2 -14431#1 -14431#0 -13309 -14067#1 -14067#0" >
        <stop busStop="117926" duration="30.00" until="43.0"/> <!-- Pont de l'Union -->
        <stop busStop="117984" duration="30.00" until="135.0"/> <!-- 117984 -->
        <stop busStop="117862" duration="30.00" until="274.0"/> <!-- Le Cirta -->
        <stop busStop="117860" duration="30.00" until="336.0"/> <!-- Mairie -->
        <stop busStop="117938" duration="30.00" until="470.0"/> <!-- 1er Escalier -->
        <stop busStop="117940" duration="30.00" until="531.0"/> <!-- 2e Escalier -->
        <stop busStop="117945" duration="30.00" until="618.0"/> <!-- Ramingao -->
    </route>
    <route id="bus_M3:Hospital" edges="13980#0 13980#1 13980#2 13980#3 13980#5 13980#6 13980#7 13980#8 13481#1 13481#2 13481#3 13401#0 13401#1 13401#2 13401#3 13401#4 13401#5 13401#6 13401#7 13218 -14080#3 -14080#2 -14080#1 -14080#0 -13971#1 -13971#0 13473#0 13473#1 13473#2 13473#3 13971#0 13971#1" >
        <stop busStop="117816" duration="30.00" until="37.0"/> <!-- La Turbie Marie -->
        <stop busStop="117824" duration="30.00" until="119.0"/> <!-- 117824 -->
        <stop busStop="117806" duration="30.00" until="232.0"/> <!-- 117806 -->
        <stop busStop="117805" duration="30.00" until="558.0"/> <!-- 117805 -->
        <stop busStop="117823" duration="30.00" until="658.0"/> <!-- 117823 -->
        <stop busStop="117815" duration="30.00" until="735.0"/> <!-- 117815 -->
        <stop busStop="117841" duration="30.00" until="911.0"/> <!-- Hopital -->
    </route>
    <route id="bus_1:Monaco" edges="13420 13654#1 13654#2 13654#3 13654#4 13526#2 13526#3 13526#4 -13525 -13293 -13221 -13677#2 -13677#1 -13677#0 -13739#10 -13739#9 -13725 -13745 -13731 -13723 -14023 -13733 -13739#3 -13739#2 -13739#1 13774#0 13774#1 -13847#5 -13847#4 -13847#3 -13847#2 -13744#2 14022#0 14022#1 14022#2 -13760#0 13744#1 13744#2 -13847#0 13882#0 13882#1 13882#2 14012#2 14012#3 13892 14034#1 14034#2 14034#3 14034#4 14034#5 14034#6 14034#7 14034#8 -14347#2 -14347#1 -13187#1 -13187#0 13874 13890#1 -13364 13893#1 13893#2 14033#4 -13889#3 -13889#2 -13889#1 -13889#0 -13848 13835 -13844 -13845" >
        <stop busStop="117952" duration="30.00" until="41.0"/> <!-- Saint-Roman (Bus 1) -->
        <stop busStop="117919" duration="30.00" until="115.0"/> <!-- Carmes -->
        <stop busStop="117910" duration="30.00" until="205.0"/> <!-- La Rousse -->
        <stop busStop="117914" duration="30.00" until="268.0"/> <!-- Place des Moulins -->
        <stop busStop="117920" duration="30.00" until="340.0"/> <!-- Saint-Charles -->
        <stop busStop="117848" duration="30.00" until="455.0"/> <!-- Monte-Carlo -->
        <stop busStop="117849" duration="30.00" until="584.0"/> <!-- Square Beaumarchais -->
        <stop busStop="117918" duration="30.00" until="655.0"/> <!-- Ostende -->
        <stop busStop="117846" duration="30.00" until="729.0"/> <!-- Place Sainte-Devote (Gare) -->
        <stop busStop="117908" duration="30.00" until="782.0"/> <!-- Princesse Florestine -->
        <stop busStop="117904" duration="30.00" until="886.0"/> <!-- Place d'Armes (Port) -->
        <stop busStop="117902" duration="30.00" until="1059.0"/> <!-- Monaco Ville (le Rocher) -->
    </route>
    <route id="bus_2:Monaco" edges="13968 13886#1 13886#2 13886#3 13886#4 13886#5 13886#6 13886#7 13886#8 13886#9 13886#10 13886#11 13831 13300 13857#0 13891 14018#2 13304 13773#0 13773#1 13773#2 13773#3 13773#4 13773#5 13775 13776 13774#0 13774#1 -13847#5 -13847#4 -13847#3 -13847#2 -13744#2 14022#0 14022#1 14022#2 -13760#0 13744#1 13744#2 -13847#0 13882#0 13882#1 13882#2 14012#2 14012#3 13892 14034#1 14034#2 14034#3 14034#4 14034#5 14034#6 14034#7 14034#8 14034#10 14033#2 14033#3 14033#4 -13889#3 -13889#2 -13889#1 -13889#0 -13848 13835 -13844 -13845" >
        <stop busStop="117923" duration="30.00" until="37.0"/> <!-- Jardin Exotique -->
        <stop busStop="117834" duration="30.00" until="125.0"/> <!-- Villa Paloma -->
        <stop busStop="117924" duration="30.00" until="163.0"/> <!-- Rotondes -->
        <stop busStop="117855" duration="30.00" until="232.0"/> <!-- Moneghetti -->
        <stop busStop="117898" duration="30.00" until="293.0"/> <!-- Belgique -->
        <stop busStop="117865" duration="30.00" until="384.0"/> <!-- Pont Sainte-Devote -->
        <stop busStop="117987" duration="30.00" until="452.0"/> <!-- Roqueville -->
        <stop busStop="117848" duration="30.00" until="543.0"/> <!-- Monte-Carlo -->
        <stop busStop="117849" duration="30.00" until="676.0"/> <!-- Square Beaumarchais -->
        <stop busStop="117918" duration="30.00" until="747.0"/> <!-- Ostende -->
        <stop busStop="117846" duration="30.00" until="821.0"/> <!-- Place Sainte-Devote (Gare) -->
        <stop busStop="117908" duration="30.00" until="873.0"/> <!-- Princesse Florestine -->
        <stop busStop="117870" duration="30.00" until="973.0"/> <!-- Place d'Armes (vers Monaco Ville) -->
        <stop busStop="117902" duration="30.00" until="1077.0"/> <!-- Monaco Ville (le Rocher) -->
    </route>
    <route id="bus_1:SaintRoman" edges="-13845 13846 -13832 -13835 13848 13889#0 13889#1 13889#2 13889#3 14033#5 14033#1 14033#2 14033#3 -13893#2 -13893#1 -13893#0 13189#6 13189#7 -13191 13389#4 13380 13383#3 -13375 14034#5 14034#6 14034#7 14034#8 -14347#2 -14347#1 -13187#1 -13187#0 13874 13890#1 13890#2 13890#3 13890#4 13460 13458 13888#1 13888#2 13888#3 13888#4 13888#5 14012#0 13859#0 13859#1 13859#2 13834 13359 13734 13726#2 13726#3 13726#4 13742#3 13749#0 13749#1 13749#2 13749#3 13749#4 13749#5 13722#0 13744#1 14022#0 14022#1 14022#2 13760#1 13760#2 -13774#0 13739#1 13739#2 13739#3 13739#4 13739#5 13739#6 13739#7 13739#8 13739#9 13739#10 13739#11 13677#1 13677#2 13221 13293 13525 13526#1 -13654#4 -13654#3 -13654#2 13420" >
        <stop busStop="117902" duration="30.00" until="39.0"/> <!-- Monaco Ville (le Rocher) -->
        <stop busStop="117904" duration="30.00" until="331.0"/> <!-- Place d'Armes (Port) -->
        <stop busStop="117830" duration="30.00" until="410.0"/> <!-- Princesse Stephanie -->
        <stop busStop="117878" duration="30.00" until="464.0"/> <!-- Stade Nautique -->
        <stop busStop="117879" duration="30.00" until="521.0"/> <!-- Princesse Antoinette -->
        <stop busStop="117880" duration="30.00" until="597.0"/> <!-- Kennedy -->
        <stop busStop="117881" duration="30.00" until="661.0"/> <!-- Auditorium Rainier III -->
        <stop busStop="117829" duration="30.00" until="746.0"/> <!-- Portier -->
        <stop busStop="117837" duration="30.00" until="843.0"/> <!-- Spelugues -->
        <stop busStop="117836" duration="30.00" until="910.0"/> <!-- Citronniers -->
        <stop busStop="117845" duration="30.00" until="962.0"/> <!-- Place du Casino -->
        <stop busStop="117843" duration="30.00" until="1093.0"/> <!-- Monte-Carlo (Tourisme) -->
        <stop busStop="117847" duration="30.00" until="1155.0"/> <!-- Saint-Charles -->
        <stop busStop="117915" duration="30.00" until="1219.0"/> <!-- Place des Moulins -->
        <stop busStop="117913" duration="30.00" until="1284.0"/> <!-- La Rousse -->
        <stop busStop="117911" duration="30.00" until="1355.0"/> <!-- Carmes -->
        <stop busStop="117952" duration="30.00" until="1424.0"/> <!-- Saint-Roman (Bus 1) -->
    </route>
    <route id="bus_5:Larvotto" edges="13971#1 13971#2 -13942#4 -13942#3 -13942#2 -13942#1 -13942#0 14627#3 14627#0 14019#0 14019#1 14019#2 13886#11 13831 13300 13857#0 13891 14018#2 13304 13773#0 13773#1 13773#2 13773#3 13773#4 13773#5 13775 13776 13739#1 13739#2 13739#3 -13740#2 -13740#1 -13740#0 -13749#4 -13749#3 -13749#2 -13749#1 -13749#0 13726#0 13726#1 13726#2 13606#0 13606#2 13606#4 13606#5 13606#6 13606#7" >
        <stop busStop="117841" duration="30.00" until="53.0"/> <!-- Hopital -->
        <stop busStop="117891" duration="30.00" until="119.0"/> <!-- Observatoire -->
        <stop busStop="117986" duration="30.00" until="176.0"/> <!-- Parc Princesse Antoinette -->
        <stop busStop="117892" duration="30.00" until="242.0"/> <!-- Bosio -->
        <stop busStop="117909" duration="30.00" until="327.0"/> <!-- Belgique -->
        <stop busStop="117865" duration="30.00" until="421.0"/> <!-- Pont Sainte-Devote -->
        <stop busStop="117987" duration="30.00" until="485.0"/> <!-- Roqueville -->
        <stop busStop="117843" duration="30.00" until="605.0"/> <!-- Monte-Carlo (Tourisme) -->
        <stop busStop="117912" duration="30.00" until="688.0"/> <!-- Place du Casino -->
        <stop busStop="117873" duration="30.00" until="759.0"/> <!-- Spelugues -->
        <stop busStop="117829" duration="30.00" until="826.0"/> <!-- Portier -->
        <stop busStop="117894" duration="30.00" until="890.0"/> <!-- Grimaldi Forum/Villa Sauber -->
        <stop busStop="117917" duration="30.00" until="961.0"/> <!-- Plages -->
        <stop busStop="117895" duration="30.00" until="1017.0"/> <!-- Sea Club -->
        <stop busStop="117869" duration="30.00" until="1072.0"/> <!-- Larvotto -->
    </route>
    <route id="bus_2:Jardin" edges="-13845 13846 -13832 -13835 13848 13889#0 13889#1 13889#2 13889#3 14033#5 14033#1 14033#2 14033#3 -13893#2 -13893#1 -13893#0 13189#6 13189#7 -13191 13389#4 13380 13383#3 -13375 14034#5 14034#6 14034#7 14034#8 -14347#2 -14347#1 -13187#1 -13187#0 13874 13890#1 13890#2 13890#3 13890#4 13460 13458 13888#1 13888#2 13888#3 13888#4 13888#5 14012#0 14012#1 -13882#2 -13882#1 -13882#0 13847#0 13847#2 13847#3 13847#4 13847#5 -13774#1 -13774#0 13739#1 13739#2 13739#3 13786#0 13786#1 13786#2 -13773#5 -13773#4 -13773#3 -13773#2 -13773#1 -13773#0 13299 14017#0 14017#1 -13886#11 -13886#10 -13886#9 -13886#8 -13886#7 -13886#6 -13886#5 -13886#4 -13886#3 -13886#2 13968" >
        <stop busStop="117902" duration="30.00" until="40.0"/> <!-- Monaco Ville (le Rocher) -->
        <stop busStop="117904" duration="30.00" until="328.0"/> <!-- Place d'Armes (Port) -->
        <stop busStop="117830" duration="30.00" until="410.0"/> <!-- Princesse Stephanie -->
        <stop busStop="117878" duration="30.00" until="465.0"/> <!-- Stade Nautique -->
        <stop busStop="117879" duration="30.00" until="522.0"/> <!-- Princesse Antoinette -->
        <stop busStop="117882" duration="30.00" until="600.0"/> <!-- Ostende -->
        <stop busStop="117877" duration="30.00" until="664.0"/> <!-- Terrasses du Casino -->
        <stop busStop="117843" duration="30.00" until="769.0"/> <!-- Monte-Carlo (Tourisme) -->
        <stop busStop="117876" duration="30.00" until="855.0"/> <!-- Cremaillere -->
        <stop busStop="117883" duration="30.00" until="944.0"/> <!-- Roqueville -->
        <stop busStop="117833" duration="30.00" until="1023.0"/> <!-- Pont Sainte-Devote -->
        <stop busStop="117905" duration="30.00" until="1087.0"/> <!-- Belgique -->
        <stop busStop="117884" duration="30.00" until="1147.0"/> <!-- Moneghetti -->
        <stop busStop="117921" duration="30.00" until="1218.0"/> <!-- Rotondes -->
        <stop busStop="117835" duration="30.00" until="1269.0"/> <!-- Villa Paloma -->
        <stop busStop="117923" duration="30.00" until="1357.0"/> <!-- Jardin Exotique -->
    </route>
    <route id="bus_6:Fontvieille" edges="13606#7 13607#0 13607#1 13607#2 13607#4 13607#6 13726#4 13742#3 13749#0 13749#1 13749#2 13749#3 13749#4 13749#5 13722#0 13744#1 14022#0 14022#1 14022#2 13760#1 13760#2 13774#1 -13847#5 -13847#4 -13847#3 -13847#2 -13744#2 14022#0 14022#1 14022#2 -13760#0 13744#1 13744#2 -13847#0 13882#0 13882#1 13882#2 14012#2 14012#3 13892 14034#1 14034#2 14034#3 14034#4 14034#5 14034#6 14034#7 14034#8 -14347#2 -14347#1 -13187#1 -13187#0 13874 13890#1 13890#2 13890#3 13890#4 13460 13861#0 13861#1 13900 13869#1 -13869#1 -13900 -13861#1 -13861#0 13540 13366 14716 14715" >
        <stop busStop="117869" duration="30.00" until="47.0"/> <!-- Larvotto -->
        <stop busStop="117995" duration="30.00" until="114.0"/> <!-- Sea Club -->
        <stop busStop="117866" duration="30.00" until="174.0"/> <!-- Plages -->
        <stop busStop="117896" duration="30.00" until="234.0"/> <!-- Grimaldi Forum/Villa Sauber -->
        <stop busStop="117868" duration="30.00" until="291.0"/> <!-- Portier -->
        <stop busStop="117837" duration="30.00" until="375.0"/> <!-- Spelugues -->
        <stop busStop="117836" duration="30.00" until="446.0"/> <!-- Citronniers -->
        <stop busStop="117845" duration="30.00" until="498.0"/> <!-- Place du Casino -->
        <stop busStop="117848" duration="30.00" until="583.0"/> <!-- Monte-Carlo -->
        <stop busStop="117849" duration="30.00" until="711.0"/> <!-- Square Beaumarchais -->
        <stop busStop="117918" duration="30.00" until="782.0"/> <!-- Ostende -->
        <stop busStop="117846" duration="30.00" until="855.0"/> <!-- Place Sainte-Devote (Gare) -->
        <stop busStop="117908" duration="30.00" until="907.0"/> <!-- Princesse Florestine -->
        <stop busStop="117904" duration="30.00" until="1012.0"/> <!-- Place d'Armes (Port) -->
        <stop busStop="117907" duration="30.00" until="1086.0"/> <!-- Princesse Stephanie -->
        <stop busStop="117874" duration="30.00" until="1287.0"/> <!-- Fontvieille - Centre Commercial -->
    </route>
    <route id="bus_6:Larvotto" edges="14715 13946#4 13946#5 13946#0 13523 13530#0 13530#1 13530#2 13469#0 13469#1 13718 -13368 -13945#3 -13945#2 -13945#1 -13945#0 14057 14056#3 -13972#1 -13972#0 14049#3 14049#4 13955#0 13955#1 13955#2 13946#5 13946#0 13946#1 13946#2 14714 13367#0 13367#0-AddedOffRampEdge 13367#1 14041 13888#2 13888#3 13888#4 13888#5 14012#0 14012#1 -13882#2 -13882#1 -13882#0 13847#0 13847#2 13847#3 13847#4 13847#5 -13774#1 -13774#0 13739#1 13739#2 13739#3 -13740#2 -13740#1 -13740#0 -13749#4 -13749#3 -13749#2 -13749#1 -13749#0 13726#0 13726#1 13726#2 13606#0 13606#2 13606#4 13606#5 13606#6 13606#7" >
        <stop busStop="117874" duration="30.00" until="43.0"/> <!-- Fontvieille - Centre Commercial -->
        <stop busStop="117888" duration="30.00" until="126.0"/> <!-- Papalins -->
        <stop busStop="117844" duration="30.00" until="204.0"/> <!-- Roseraie -->
        <stop busStop="117887" duration="30.00" until="260.0"/> <!-- Heliport -->
        <stop busStop="117988" duration="30.00" until="320.0"/> <!-- Stade Louis II -->
        <stop busStop="117994" duration="30.00" until="417.0"/> <!-- Albert II -->
        <stop busStop="117889" duration="30.00" until="484.0"/> <!-- Port de Fontvieille -->
        <stop busStop="117878" duration="30.00" until="583.0"/> <!-- Stade Nautique -->
        <stop busStop="117879" duration="30.00" until="640.0"/> <!-- Princesse Antoinette -->
        <stop busStop="117882" duration="30.00" until="719.0"/> <!-- Ostende -->
        <stop busStop="117877" duration="30.00" until="784.0"/> <!-- Terrasses du Casino -->
        <stop busStop="117843" duration="30.00" until="876.0"/> <!-- Monte-Carlo (Tourisme) -->
        <stop busStop="117912" duration="30.00" until="958.0"/> <!-- Place du Casino -->
        <stop busStop="117873" duration="30.00" until="1031.0"/> <!-- Spelugues -->
        <stop busStop="117829" duration="30.00" until="1099.0"/> <!-- Portier -->
        <stop busStop="117894" duration="30.00" until="1163.0"/> <!-- Grimaldi Forum/Villa Sauber -->
        <stop busStop="117917" duration="30.00" until="1230.0"/> <!-- Plages -->
        <stop busStop="117895" duration="30.00" until="1288.0"/> <!-- Sea Club -->
        <stop busStop="117869" duration="30.00" until="1344.0"/> <!-- Larvotto -->
    </route>
    <route id="bus_4:Fontvieille" edges="-13420 -13654#1 -13654#0 13648 13289 13417#1 13291 13286 14450 13291 13657#1 13421 13654#0 13654#1 13654#2 13654#3 13654#4 13526#2 13526#3 13526#4 -13525 -13293 -13221 -13677#2 -13677#1 -13677#0 -13739#10 -13739#9 -13725 -13745 -13731 -13723 -14023 -13733 13786#0 13786#1 13786#2 -13773#5 -13773#4 -13773#3 -13773#2 -13773#1 -13773#0 13299 14017#0 13865 13857#2 13219 14043#0 14043#1 14043#2 14043#3 14043#4 -13867#1 13896#0 13896#1 13189#7 -13191 13389#4 13380 13383#3 -13375 14034#5 14034#6 14034#7 14034#8 -14347#2 -14347#1 -13187#1 -13187#0 13874 13890#1 13890#2 13890#3 13890#4 13460 13861#0 13861#1 13900 13869#1 -13869#1 -13900 -13861#1 -13861#0 13540 13366 14716 14715" >
        <stop busStop="117871" duration="30.00" until="38.0"/> <!-- Saint-Roman (Bus 4) -->
        <stop busStop="117867" duration="30.00" until="159.0"/> <!-- Varavilla -->
        <stop busStop="117949" duration="30.00" until="232.0"/> <!-- Saint-Roman -->
        <stop busStop="117919" duration="30.00" until="301.0"/> <!-- Carmes -->
        <stop busStop="117910" duration="30.00" until="392.0"/> <!-- La Rousse -->
        <stop busStop="117914" duration="30.00" until="455.0"/> <!-- Place des Moulins -->
        <stop busStop="117920" duration="30.00" until="526.0"/> <!-- Saint-Charles -->
        <stop busStop="117876" duration="30.00" until="611.0"/> <!-- Cremaillere -->
        <stop busStop="117883" duration="30.00" until="684.0"/> <!-- Roqueville -->
        <stop busStop="117833" duration="30.00" until="771.0"/> <!-- Pont Sainte-Devote -->
        <stop busStop="117885" duration="30.00" until="841.0"/> <!-- Louis Aureglia -->
        <stop busStop="117831" duration="30.00" until="914.0"/> <!-- Castelleretto -->
        <stop busStop="117832" duration="30.00" until="977.0"/> <!-- Honore II -->
        <stop busStop="117904" duration="30.00" until="1180.0"/> <!-- Place d'Armes (Port) -->
        <stop busStop="117907" duration="30.00" until="1259.0"/> <!-- Princesse Stephanie -->
        <stop busStop="117874" duration="30.00" until="1460.0"/> <!-- Fontvieille - Centre Commercial -->
    </route>
    <route id="bus_4:SaintRoman" edges="14715 13946#4 13946#5 13946#0 13523 13530#0 13530#1 13530#2 13469#0 13469#1 13718 -13368 -13945#3 -13945#2 -13945#1 -13945#0 14057 14056#3 14056#4 14047 -13967#1 -14550#0 13490 13340 13491#0 13491#1 13379 13389#3 13191 13189#0 13189#1 13189#2 13189#3 13189#4 13189#5 13893#0 13893#1 13893#2 14033#4 14033#5 14033#1 14033#2 14033#3 -13893#2 -13893#1 -13893#0 13189#6 13189#7 -13191 13389#4 13380 13383#3 -13375 14034#5 14034#6 14034#7 14034#8 -13897#1 -13897#0 -14624#3 -14624#2 -14624#1 -14624#0 14043#1 14043#2 14043#3 14043#4 14061#0 14061#1 14061#2 -14061#2 -14061#1 -14061#0 -14043#4 -14043#3 -14043#2 -14043#1 -14043#0 -13219 14018#0 14018#1 14018#2 13304 13773#0 13773#1 13773#2 13773#3 13773#4 13773#5 13775 13776 13739#1 13739#2 13739#3 13739#4 13739#5 13739#6 13739#7 13739#8 13739#9 13739#10 13739#11 13677#1 13677#2 13221 13293 13525 13526#1 -13654#4 -13654#3 -13654#2 -13654#1 -13420" >
        <stop busStop="117874" duration="30.00" until="45.0"/> <!-- Fontvieille - Centre Commercial -->
        <stop busStop="117888" duration="30.00" until="131.0"/> <!-- Papalins -->
        <stop busStop="117844" duration="30.00" until="210.0"/> <!-- Roseraie -->
        <stop busStop="117887" duration="30.00" until="265.0"/> <!-- Heliport -->
        <stop busStop="117988" duration="30.00" until="327.0"/> <!-- Stade Louis II -->
        <stop busStop="117974" duration="30.00" until="425.0"/> <!-- Cimetiere -->
        <stop busStop="117901" duration="30.00" until="559.0"/> <!-- Place d'Armes (Charles III) -->
        <stop busStop="117886" duration="30.00" until="882.0"/> <!-- Castelleretto -->
        <stop busStop="117822" duration="30.00" until="944.0"/> <!-- Louis Aureglia -->
        <stop busStop="117865" duration="30.00" until="1032.0"/> <!-- Pont Sainte-Devote -->
        <stop busStop="117987" duration="30.00" until="1113.0"/> <!-- Roqueville -->
        <stop busStop="117843" duration="30.00" until="1199.0"/> <!-- Monte-Carlo (Tourisme) -->
        <stop busStop="117847" duration="30.00" until="1260.0"/> <!-- Saint-Charles -->
        <stop busStop="117915" duration="30.00" until="1326.0"/> <!-- Place des Moulins -->
        <stop busStop="117913" duration="30.00" until="1390.0"/> <!-- La Rousse -->
        <stop busStop="117911" duration="30.00" until="1463.0"/> <!-- Carmes -->
        <stop busStop="117871" duration="30.00" until="1535.0"/> <!-- Saint-Roman (Bus 4) -->
    </route>
    <route id="bus_M3:Turbie" edges="-13817 13980#1 13980#2 13980#3 13980#5 13980#6 13541 -14124#0 14124#0 -13541 -13980#6 14501#12 -14501#12 13980#6 13980#7 13980#8 14648#0 14648#1 -14648#1 -14648#0 -13481#0 14003#0 14081#0 14081#2 14081#3 14081#4 14081#5 14081#6 13478 14712#1 14038 13465 14717 13401#0 13401#1 13401#2 13475#0 13475#1 13475#2 13475#3 -13475#3 -13475#2 -13475#1 -13475#0 -13401#2 -13401#1 13476 13401#2 13401#3 13401#4 13401#5 13479 -13479 -13401#5 -13401#4 14542#0 13993#0 13993#1 -13997 -13993#0 -14542#0 13401#4 13401#5 13401#6 13401#7 13218 13220#0 13220#1 13470#1 13470#2 13470#3 13470#0 -13220#1 -13220#0 -13218 -13401#7 -13401#6 13479 -13479 13401#6 13401#7 13218 -14080#3 -14080#2 -14080#1 -14080#0 13971#2 -13942#4 -13942#3 -13942#2 -13942#1 -13942#0 14627#3 14627#0 14627#1 14627#2 13942#0 13942#1 13942#2 13942#3 13942#4 13942#5" >
        <stop busStop="117950" duration="30.00" until="37.0"/> <!-- La Turbie Marie -->
        <stop busStop="117826" duration="30.00" until="266.0"/> <!-- 117826 -->
        <stop busStop="117810" duration="30.00" until="751.0"/> <!-- 117810 -->
        <stop busStop="117825" duration="30.00" until="1302.0"/> <!-- 117825 -->
        <stop busStop="117819" duration="30.00" until="1490.0"/> <!-- 117819 -->
        <stop busStop="117808" duration="30.00" until="1716.0"/> <!-- 117808 -->
        <stop busStop="117872" duration="30.00" until="2070.0"/> <!-- Hopital -->
    </route>
    <route id="bus_5:Hopital" edges="13606#7 13607#0 13607#1 13607#2 13607#4 13607#6 13726#4 13742#3 13749#0 13749#1 13749#2 13749#3 13749#4 13749#5 13722#0 13744#1 14022#0 14022#1 14022#2 13760#1 13760#2 -13774#0 13739#1 13739#2 13739#3 13786#0 13786#1 13786#2 -13773#5 -13773#4 -13773#3 -13773#2 -13773#1 -13773#0 13299 14017#0 14017#1 -13886#11 -14019#2 -14019#1 -14019#0 14627#1 14627#2 13942#0 13942#1 13942#2 13942#3 13942#4 13942#5 -13971#1 -13971#0 13473#0 13473#1 13473#2 14011#0 14011#1 14011#2 13491#1 13379 13389#3 13191 13189#0 13190 14042 13491#0 -14011#2 -14011#1 -14011#0 13473#3 13971#0 13971#1" >
        <stop busStop="117869" duration="30.00" until="48.0"/> <!-- Larvotto -->
        <stop busStop="117995" duration="30.00" until="112.0"/> <!-- Sea Club -->
        <stop busStop="117866" duration="30.00" until="173.0"/> <!-- Plages -->
        <stop busStop="117896" duration="30.00" until="233.0"/> <!-- Grimaldi Forum/Villa Sauber -->
        <stop busStop="117868" duration="30.00" until="290.0"/> <!-- Portier -->
        <stop busStop="117837" duration="30.00" until="367.0"/> <!-- Spelugues -->
        <stop busStop="117836" duration="30.00" until="431.0"/> <!-- Citronniers -->
        <stop busStop="117845" duration="30.00" until="483.0"/> <!-- Place du Casino -->
        <stop busStop="117843" duration="30.00" until="576.0"/> <!-- Monte-Carlo (Tourisme) -->
        <stop busStop="117876" duration="30.00" until="663.0"/> <!-- Cremaillere -->
        <stop busStop="117883" duration="30.00" until="755.0"/> <!-- Roqueville -->
        <stop busStop="117833" duration="30.00" until="838.0"/> <!-- Pont Sainte-Devote -->
        <stop busStop="117989" duration="30.00" until="913.0"/> <!-- Belgique -->
        <stop busStop="117893" duration="30.00" until="975.0"/> <!-- Bosio -->
        <stop busStop="117985" duration="30.00" until="1056.0"/> <!-- Parc Princesse Antoinette -->
        <stop busStop="117872" duration="30.00" until="1136.0"/> <!-- Hopital -->
        <stop busStop="117842" duration="30.00" until="1428.0"/> <!-- Athanee -->
        <stop busStop="117841" duration="30.00" until="1503.0"/> <!-- Hopital -->
    </route>
    <route id="bus_3:Fontvieille" edges="13908#6 13886#3 13886#4 13886#5 13886#6 13886#7 13886#8 13886#9 13886#10 -14019#2 -14019#1 -14019#0 14627#1 14627#2 13942#0 13942#1 13942#2 13942#3 13942#4 13942#5 -13971#1 -13971#0 13473#0 13473#1 13473#2 14011#0 14011#1 14011#2 13491#1 13379 13389#3 13191 13189#0 13189#1 13189#2 13189#3 13189#4 13189#5 13893#0 13893#1 13893#2 14033#4 14033#5 14033#1 14033#2 14033#3 -13893#2 -13893#1 -13893#0 13189#6 13189#7 -13191 13389#4 13380 13383#3 -13375 14034#5 14034#6 14034#7 14034#8 -14347#2 -14347#1 -13187#1 -13187#0 13874 13890#1 13890#2 13890#3 13890#4 13460 13861#0 13861#1 13900 13869#1 -13869#1 -13900 -13861#1 -13861#0 13540 13366 14716 14715" >
        <stop busStop="117897" duration="30.00" until="44.0"/> <!-- Hector Otto -->
        <stop busStop="117834" duration="30.00" until="114.0"/> <!-- Villa Paloma -->
        <stop busStop="117922" duration="30.00" until="171.0"/> <!-- Rotondes -->
        <stop busStop="117855" duration="30.00" until="222.0"/> <!-- Moneghetti -->
        <stop busStop="117898" duration="30.00" until="283.0"/> <!-- Belgique -->
        <stop busStop="117989" duration="30.00" until="333.0"/> <!-- Belgique -->
        <stop busStop="117893" duration="30.00" until="394.0"/> <!-- Bosio -->
        <stop busStop="117985" duration="30.00" until="475.0"/> <!-- Parc Princesse Antoinette -->
        <stop busStop="117872" duration="30.00" until="555.0"/> <!-- Hopital -->
        <stop busStop="117903" duration="30.00" until="640.0"/> <!-- Athanee -->
        <stop busStop="117840" duration="30.00" until="721.0"/> <!-- Cimetiere -->
        <stop busStop="117901" duration="30.00" until="882.0"/> <!-- Place d'Armes (Charles III) -->
        <stop busStop="117904" duration="30.00" until="1081.0"/> <!-- Place d'Armes (Port) -->
        <stop busStop="117907" duration="30.00" until="1154.0"/> <!-- Princesse Stephanie -->
        <stop busStop="117874" duration="30.00" until="1358.0"/> <!-- Fontvieille - Centre Commercial -->
    </route>