<?xml version="1.0" encoding="UTF-8"?>

<!-- generated on Thu Apr 26 16:59:12 2018 by Eclipse SUMO duarouter Version 1c6dcbf191
<configuration xmlns:xsi="http://www.w3.org/2001/XMLSchema-instance" xsi:noNamespaceSchemaLocation="http://sumo.dlr.de/xsd/duarouterConfiguration.xsd">

    <input>
        <net-file value="../scenario/in/most.net.xml"/>
        <additional-files value="../scenario/in/add/most.busstops.add.xml,../scenario/in/add/most.trainstops.add.xml,../scenario/in/add/most.parkings.add.xml,../scenario/in/add/basic.vType.xml"/>
        <route-files value="out/most.bicycle.trips.xml"/>
    </input>

    <output>
        <output-file value="../scenario/in/route/most.bicycle.rou.xml"/>
        <vtype-output value="/dev/null"/>
        <alternatives-output value="../scenario/in/route/most.bicycle.rou.alt.xml"/>
    </output>

    <processing>
        <ignore-errors value="true"/>
        <max-alternatives value="5"/>
        <remove-loops value="false"/>
        <repair value="false"/>
        <repair.from value="false"/>
        <repair.to value="false"/>
        <routing-threads value="4"/>
        <routing-algorithm value="dijkstra"/>
    </processing>

    <time>
        <begin value="0"/>
        <end value="84600"/>
    </time>

</configuration>
-->

<routes xmlns:xsi="http://www.w3.org/2001/XMLSchema-instance" xsi:noNamespaceSchemaLocation="http://sumo.dlr.de/xsd/routes_file.xsd">
    <vehicle id="bicycle_1_526" type="bicycle" depart="18162.00" departLane="best">
        <route edges="-801 -802 806 -778 -779 -777 692 733#0 733#1 733#2 733#3 878#4 695 734#0 734#1 734#2 734#3 734#4 732#0 732#1 732#2 732#3 747#0 282#1 282#2 -700#1 -700#0 -682#1 -682#0 879#7 879#8 879#9 -741#1 -741#0 -1480#3 -1480#2 -1480#1 -1480#0 -888#1 -743#1 -743#0"/>
    </vehicle>
    <vehicle id="bicycle_1_51" type="bicycle" depart="18340.00" departLane="best">
        <route edges="793 775 689 688 -679 692 733#0 733#1 733#2 733#3 878#4 695 734#0 734#1 734#2 734#3 734#4 732#0 732#1 732#2 732#3 747#0 282#1 282#2 -700#1 -700#0 -682#1 -682#0 879#7 879#8 879#9 -741#1 -741#0 -1480#3 -1480#2 -1480#1 -1480#0 -888#1 -888#0 863#0 863#1 863#2 617#0"/>
    </vehicle>
    <vehicle id="bicycle_1_100" type="bicycle" depart="18442.00" departLane="best">
        <route edges="730#8 730#9 730#10 730#11 675 735 863#2 617#0 617#1 617#2 617#3 617#4 617#5 619 620 582#1 582#2 582#3 582#4 582#5 582#6 582#7 582#8 582#9 582#10 582#11"/>
    </vehicle>
    <vehicle id="bicycle_1_356" type="bicycle" depart="18468.00" departLane="best">
        <route edges="-864#0 1484#1 1484#2 1484#3 743#0 743#1 888#1 1480#0 1480#1 1480#2 1480#3 741#0 741#1 879#11 878#1 878#2 878#3 -733#3 -733#2 -733#1 -733#0 -692 679 -688 -689 690 715 719 -722 1151#0 1151#1 1151#2 1549#0 1549#1 -784"/>
    </vehicle>
    <vehicle id="bicycle_1_723" type="bicycle" depart="18504.00" departLane="best">
        <route edges="-723 730#10 730#11 675 735 863#2 617#0 683#0 683#1 683#2 683#3 632 580 -691#2 -588#2 -588#1 -564#0 -593#5 -593#4 -593#3 -593#2 -593#1 -593#0 586 569#1 569#2 439#0 439#2 439#4 439#6 439#7 439#9 360#3 360#4 360#5 360#0 360#1"/>
    </vehicle>
    <vehicle id="bicycle_1_629" type="bicycle" depart="18539.00" departLane="best">
        <route edges="-811#1 -811#0 902#2 902#3 902#4 893 -812#1 -1404#0 443#0 443#1 15#2 15#3 15#4 15#5 737#0 737#2 878#3 878#4 695 734#0 734#1 734#2 734#3 734#4 732#0 732#1 732#2 732#3 732#4 732#5 857#0 857#1 -726#2 -726#1 -726#0 691#0 691#2 691#3 691#4 691#5 -618#1 -618#0 582#1 582#2 582#3 582#4 582#5 582#6 582#7 582#8 582#9 582#10 582#11 519#1 519#2 519#3 351#1 351#2 529#0 529#1 529#2 -884#0 855#0 855#1 855#2 855#3 855#4"/>
    </vehicle>
    <vehicle id="bicycle_1_512" type="bicycle" depart="18594.00" departLane="best">
        <route edges="730#11 675 735"/>
    </vehicle>
    <vehicle id="bicycle_1_840" type="bicycle" depart="18618.00" departLane="best">
        <route edges="862#0 862#1 -730#11 -864#2 -864#1 -864#0 1484#1 1484#2 787#0 787#1 787#2 787#3 787#4 787#5 -816#1 -816#0 298#0 298#1 -929#7 -929#6 -929#5 -929#4 -929#3 -929#2 -929#1 -929#0 -1404#9 -1404#8 -1404#7 -1404#6 -1404#5 -1404#3 -1404#2 -1404#1 -1404#0 443#0 443#1"/>
    </vehicle>
    <vehicle id="bicycle_1_943" type="bicycle" depart="18720.00" departLane="best">
        <route edges="775 689 688 -679 692 733#0 733#1 733#2 733#3 878#4 695 734#0 734#1 734#2 734#3 734#4 732#0 732#1 732#2 732#3 747#0 282#1 282#2 -700#1 -700#0 -682#1 -682#0 879#7 879#8 879#9 -741#1 -741#0 -1480#3 -1480#2 -1480#1 -1480#0 -888#1 -743#1 -743#0 1484#0 1484#1 -698 -717 730#9"/>
    </vehicle>
    <vehicle id="bicycle_2_14" type="bicycle" depart="18759.00" departLane="best">
        <route edges="1308#0 1308#1 1308#2 1308#3 1308#4 1308#5 502#1 502#2 494#2 494#3 494#4 351#2 351#3 351#4 -350 -519#2 -519#1 -519#0 -582#10 -582#9 -582#8 -582#7 -582#6 -582#5 -582#4 630#1 630#2 630#3 -617#5 394#0 394#1 -613 -601#3 -601#2 -601#1 -601#0"/>
    </vehicle>
    <vehicle id="bicycle_1_376" type="bicycle" depart="18804.00" departLane="best">
        <route edges="355#1 355#2 360#1 440#0 440#2 440#3 440#6 440#8 569#4 585#3 1481 593#0 593#1 593#2 593#3 593#4 593#5 564#0 588#1 588#2 691#2 -580 -632 -683#3 -683#2 -683#1 -683#0 -617#0 111 369#0 -1367#2 -1367#1 -1367#0 890#5 729"/>
    </vehicle>
    <vehicle id="bicycle_1_338" type="bicycle" depart="18856.00" departLane="best">
        <route edges="573#0 573#1 440#8 569#4 585#3 1481 593#0 593#1 593#2 593#3 593#4 583#0 583#1 583#2 582#4 582#5 582#6 582#7 582#8 582#9 582#10 582#11 519#1 519#2 519#3 351#1 -494#4 -494#3 -494#2 -502#2 -502#1 -501 -860#3 -860#2 -860#1"/>
    </vehicle>
    <vehicle id="bicycle_1_682" type="bicycle" depart="18959.00" departLane="best">
        <route edges="863#0 863#1 863#2 617#0 617#1 617#2 617#3 617#4 617#5 619 620 582#1 582#2 582#3 -583#2 -583#1"/>
    </vehicle>
    <vehicle id="bicycle_1_431" type="bicycle" depart="19138.00" departLane="best">
        <route edges="617#2 -622#3 -624#1 -624#0 890#1 890#2 890#3 890#4 890#5 729 717 698 1484#2 787#0 787#1 787#2 787#3 787#4 787#5 -816#1 -816#0 298#0 298#1 -929#7 -929#6 -929#5 -929#4 -929#3 -929#2 -929#1 -929#0 -1404#9 -1404#8 -1404#7 -1404#6 -1404#5 -1404#3 -1404#2 -1404#1 812#1 812#2 902#0 902#1 902#2 902#3 -817#1 -817#0 895#3 803#0 803#1"/>
    </vehicle>
    <vehicle id="bicycle_2_21" type="bicycle" depart="19172.00" departLane="best">
        <route edges="248#0 248#1 -567#0 -582#10 -582#9 -582#8 -582#7 -582#6 -582#5 -582#4 -582#3 -582#2 -582#1 572#0 572#1 1175#0"/>
    </vehicle>
    <vehicle id="bicycle_1_685" type="bicycle" depart="19263.00" departLane="best">
        <route edges="-797 -799 -798 -801 -802 806 -778 -779 -777 692 733#0 733#1 733#2 733#3 878#4 695 734#0 734#1 734#2 734#3 734#4 732#0 732#1 732#2 732#3 747#0 282#1 282#2 -700#1 -700#0 -682#1 -682#0 879#7 879#8 879#9 -741#1 -741#0 -1480#3 -1480#2 -1480#1 -1480#0 -888#1 -743#1 -743#0 1484#0 1484#1 -698 -717 -730#8 -730#7 -730#6 -730#5 -730#4 -730#3 -730#2 813 730#1 730#2 730#3 730#4"/>
    </vehicle>
    <vehicle id="bicycle_1_94" type="bicycle" depart="19275.00" departLane="best">
        <route edges="585#1 585#2 585#3 569#0 569#1 569#2 439#0 439#2 439#4 439#6 439#7 439#9 360#3"/>
    </vehicle>
    <vehicle id="bicycle_1_965" type="bicycle" depart="19284.00" departLane="best">
        <route edges="-730#9 717 698 1484#2 1484#3 1484#0 864#0 864#1 864#2 730#11 675 735 863#2 617#0 683#0 683#1 683#2 683#3 632 580 -691#2 -588#2 -588#1 -564#0 -593#5 -593#4 592#0 592#1 592#2 375#0 375#1"/>
    </vehicle>
    <vehicle id="bicycle_2_233" type="bicycle" depart="19382.00" departLane="best">
        <route edges="-1244#4 -1244#3 -1244#2 -1244#1 -1244#0 -1293#4 -1293#3 -1293#2 -1293#1 -1293#0 239#1 103 497#1 243 494#0 494#1 494#2 494#3 494#4 351#2 351#3 351#4 -350 -519#2 -519#1 -519#0 -582#10 -582#9 -582#8 -582#7 -582#6 -582#5 -582#4 630#1 630#2 630#3 -617#5 -617#4 -617#3 -622#3 -622#2 -622#1 -622#0 -920 -918 -1341#16 -1341#15 -1341#14 1343#0 1343#1 1252#0 1252#1 1252#2 1252#4 917#0 917#2 917#3 917#4 917#5 917#6 917#7 917#8 -1327#0 1341#0 1341#1 1341#3 1341#4 1341#5 1341#6 1341#7 1341#8 1341#9 1341#10 1341#11 1341#12 1341#13"/>
    </vehicle>
    <vehicle id="bicycle_1_747" type="bicycle" depart="19491.00" departLane="best">
        <route edges="-248#0 247#3 247#4 247#1 -562#6 -562#5 -562#4 -562#3 -562#2 -562#1 -562#0 561#1 561#2 1333#0 1333#1 1333#2 1333#3 1334#0 1334#1 1334#2 859 600 630#3 -617#5 -617#4 -617#3 -617#2 -617#1 -617#0 111 862#0 862#1 -730#11 -730#10 -730#9 -730#8 -730#7 -730#6 -730#5 -730#4 -730#3 -752#6 -752#5 -752#4 -752#3 -752#2 -287 752#3"/>
    </vehicle>
    <vehicle id="bicycle_2_221" type="bicycle" depart="19513.00" departLane="best">
        <route edges="-728#2 -728#1 -728#0 -1369#0 -1373#1 -1373#0 924#1 925 729 717 698 1484#2 1484#3 743#0 743#1 888#1 1480#0 1480#1 1480#2 1480#3 741#0 741#1 879#11 878#1 878#2 878#3 878#4 695 734#0 734#1 734#2 734#3 734#4 285"/>
    </vehicle>
    <vehicle id="bicycle_1_720" type="bicycle" depart="19566.00" departLane="best">
        <route edges="-730#6 -730#5 -730#4 -730#3 -730#2 813 730#1 730#2 730#3 730#4 730#5 730#6 730#7 730#8 730#9 730#10 730#11 675 735 863#2 617#0 617#1 617#2 617#3 617#4 617#5 619 620 582#1 582#2 582#3 582#4 582#5 582#6 582#7 582#8 582#9 582#10 582#11 1547 257#0 257#1"/>
    </vehicle>
    <vehicle id="bicycle_1_283" type="bicycle" depart="19668.00" departLane="best">
        <route edges="520#6 520#7 520#8 520#9 416#1 247#4 247#1 247#2 248#0 248#1 -567#0 -582#10 -582#9 -582#8 -582#7 -582#6 -582#5 -582#4 -582#3 -582#2 -582#1 618#0 618#1 -691#5 -691#4 -691#3 -691#2 -691#0 726#0 726#1 726#2 857#2 857#3 736 879#1 721#0 721#1 699#0 699#1 282#2 -700#1"/>
    </vehicle>
    <vehicle id="bicycle_1_315" type="bicycle" depart="19822.00" departLane="best">
        <route edges="1152#2 1141#1 1141#2 1141#3 1141#4 1168 -805 866 782 -719 -715 -690 689 688 -679 692 733#0 733#1 733#2 733#3 878#4 695 734#0 734#1 734#2 734#3 734#4 732#0 732#1 732#2 732#3 747#0 282#1 282#2 -700#1 -700#0 -682#1 -682#0 879#7 879#8 879#9 -741#1 -741#0 -1480#3 -1480#2 -1480#1 -1480#0 -888#1 -888#0"/>
    </vehicle>
    <vehicle id="bicycle_1_238" type="bicycle" depart="19836.00" departLane="best">
        <route edges="787#1 787#2 787#3 -748#6 -748#5 -748#4 -748#3 -748#2 -748#1 -748#0 -907#1 -907#0 -888#5 -888#4 -888#3 -888#2 -888#1 -743#1 -743#0"/>
    </vehicle>
    <vehicle id="bicycle_1_550" type="bicycle" depart="19852.00" departLane="best">
        <route edges="97 1304 103 497#1 243 494#0 494#1 494#2 494#3 494#4 351#2 351#3 351#4 -350 -519#2 -519#1 -519#0 -582#10 -582#9 -582#8 -582#7 -582#6 -582#5 -582#4 630#1 630#2 630#3 -617#5 -617#4 -617#3 -617#2 -617#1 -617#0 111 862#0 709 701#2 888#0 888#1 1480#0 1480#1"/>
    </vehicle>
    <vehicle id="bicycle_1_991" type="bicycle" depart="19854.00" departLane="best">
        <route edges="863#2 -369#1 -369#0"/>
    </vehicle>
    <vehicle id="bicycle_1_194" type="bicycle" depart="19910.00" departLane="best">
        <route edges="732#1 732#2 732#3 747#0 282#1 282#2 -700#1 -700#0 -682#1 -682#0 879#7 879#8 879#9 -741#1 -741#0 -1480#3 -1480#2 -1480#1 -1480#0 -888#1 -888#0 863#0 863#1 863#2 111 369#0"/>
    </vehicle>
    <vehicle id="bicycle_1_903" type="bicycle" depart="19932.00" departLane="best">
        <route edges="-1480#3 -1480#2 -1480#1 -1480#0 -888#1 -888#0 863#0 863#1 863#2 617#0 683#0 683#1 683#2 683#3 632 580 -691#2 -588#2 -588#1 -564#0 -593#5 -593#4 -593#3 -593#2 -593#1 -593#0 586 569#1 569#2 569#3"/>
    </vehicle>
    <vehicle id="bicycle_2_149" type="bicycle" depart="19938.00" departLane="best">
        <route edges="-803#1 -803#0 895#4 895#1 895#2 817#0 817#1 902#4 893 -812#1 -1404#0 443#0 443#1 15#2 15#3 15#4 15#5 737#0 737#2 878#3 878#4 695 734#0 734#1 734#2 734#3 734#4 732#0 732#1 732#2 732#3 732#4 732#5 857#0 857#1 -726#2 -726#1 -720 858#1 858#2 455 -683#2 -696 617#3 617#4 394#0"/>
    </vehicle>
    <vehicle id="bicycle_2_116" type="bicycle" depart="19969.00" departLane="best">
        <route edges="1491#1 1491#2 -815#0 1492 895#2 895#3 895#4 895#1"/>
    </vehicle>
    <vehicle id="bicycle_1_772" type="bicycle" depart="20061.00" departLane="best">
        <route edges="709 701#2 888#0 -743#1 -743#0 1484#0 1484#1 1484#2 787#0 787#1 787#2 787#3 787#4 787#5 -816#1 -816#0 298#0 298#1 -929#7 -929#6 -929#5 -929#4 -929#3 -929#2 -929#1 -929#0 -1404#9 -1404#8 -1404#7 -1404#6 -1404#5 -1404#3 -1404#2 -1404#1 812#1 -318 -10 -877"/>
    </vehicle>
    <vehicle id="bicycle_1_681" type="bicycle" depart="20076.00" departLane="best">
        <route edges="752#3 752#4 752#5 752#6 730#3 730#4 730#5 730#6 730#7 730#8 730#9 730#10 730#11 675 735 863#2 617#0 683#0 683#1 683#2 683#3 632 580 -691#2 -588#2 -588#1 -564#0 -593#5 -593#4 -593#3 -593#2 -593#1 -593#0 586 569#1 569#2 439#0 439#2 439#4 439#6 439#7 439#9 360#3"/>
    </vehicle>
    <vehicle id="bicycle_1_257" type="bicycle" depart="20083.00" departLane="best">
        <route edges="520#5 520#6 520#7 520#8 520#9 416#1 247#4 247#1 247#2 248#0 248#1 -567#0 -582#10 -582#9 -582#8 -582#7 -582#6 -582#5 -582#4 -582#3 -582#2 -582#1 618#0 618#1 -691#5 -691#4 -691#3 -691#2 -691#0 726#0 726#1 726#2 857#2 857#3 736 879#1 879#2 879#3 879#4 879#5 879#6 879#7 879#8 879#9 879#11 878#1 878#2 -737#2"/>
    </vehicle>
    <vehicle id="bicycle_2_44" type="bicycle" depart="20158.00" departLane="best">
        <route edges="-890#3 -890#2 -890#1 -890#0 624#1 622#3 -617#2 -617#1 -617#0 111 862#0 709 701#2 888#0"/>
    </vehicle>
    <vehicle id="bicycle_1_891" type="bicycle" depart="20174.00" departLane="best">
        <route edges="-579#1 -579#0 257#1 257#2 257#3 257#0 579#0 579#1 579#2 579#3 579#4 579#5 579#6 -583#1 -583#0 593#5 564#0 588#1 588#2 -691#0 726#0 -720"/>
    </vehicle>
    <vehicle id="bicycle_1_463" type="bicycle" depart="20186.00" departLane="best">
        <route edges="569#0 569#1 569#2 569#3 569#4 585#3 1481 593#0 593#1 593#2 593#3 593#4 593#5 -572#2 1175#0"/>
    </vehicle>
    <vehicle id="bicycle_1_562" type="bicycle" depart="20208.00" departLane="best">
        <route edges="748#5 748#6 -787#3 -787#2 -787#1 -787#0 1484#3 1484#0 864#0 864#1 864#2 730#11 675 735 863#2 617#0 683#0 683#1 683#2 683#3 632 580 691#3"/>
    </vehicle>
    <vehicle id="bicycle_1_133" type="bicycle" depart="20233.00" departLane="best">
        <route edges="-524#0 -519#2 -519#1 -519#0 -582#10 -582#9 -582#8 -582#7 -582#6 -582#5 -582#4 -582#3 -582#2 -582#1 618#0 618#1 -691#5 -691#4 -691#3 -691#2 -691#0 726#0 726#1 726#2 857#2 857#3 736 879#1 879#2 879#3 879#4 879#5 879#6 879#7 879#8 879#9 879#11 878#1 878#2 878#3 -733#3 -733#2 -733#1 -733#0 -692 679 -688 -689 690 715 719 -722 1151#0"/>
    </vehicle>
    <vehicle id="bicycle_1_34" type="bicycle" depart="20400.00" departLane="best">
        <route edges="730#11 675 735 863#2 111 862#0 862#1 -730#11 -730#10 -730#9 -730#8 -730#7 -730#6 -730#5 -730#4 -730#3 -730#2 -730#1 -730#0 909 -818#1"/>
    </vehicle>
    <vehicle id="bicycle_1_751" type="bicycle" depart="20445.00" departLane="best">
        <route edges="863#2 617#0 617#1 617#2 617#3 617#4 617#5 619 621#0 621#2 594 447 561#0 1170#0 1170#1 1170#2 -566 -868 -576"/>
    </vehicle>
    <vehicle id="bicycle_1_464" type="bicycle" depart="20515.00" departLane="best">
        <route edges="1136 1217#2 -408 -783 806 -778 -779 -777 692 733#0 733#1 733#2 733#3 878#4 695 734#0 734#1 734#2 734#3 734#4 732#0 732#1 732#2 732#3 747#0 282#1 282#2 -700#1 -700#0 -682#1 -682#0 879#7 879#8 879#9 -741#1 -741#0 -1480#3 -1480#2 -1480#1 -1480#0 -888#1 -888#0 863#0 863#1 863#2 111 862#0 709 701#2"/>
    </vehicle>
    <vehicle id="bicycle_1_154" type="bicycle" depart="20531.00" departLane="best">
        <route edges="-730#8 -728#5 -1365 1366 730#9 730#10 730#11 675 701#1 701#2"/>
    </vehicle>
    <vehicle id="bicycle_2_101" type="bicycle" depart="20564.00" departLane="best">
        <route edges="902#4 893 -812#1 -1404#0 443#0 443#1 15#2 15#3 15#4 15#5 737#0 737#2 878#3 878#4 695 734#0 734#1 734#2 734#3 734#4 732#0 732#1 732#2 732#3 732#4 732#5 857#0 857#1 -726#2 -726#1 -726#0 691#0 691#2 691#3 691#4 691#5 -618#1 -618#0 582#1 582#2 582#3 630#1 621#2 594 447 561#0 561#1 561#2 1333#0 1333#1 1333#2 1333#3 1334#0 1334#1 1334#2 859 600"/>
    </vehicle>
    <vehicle id="bicycle_1_3" type="bicycle" depart="20622.00" departLane="best">
        <route edges="864#1 864#2 730#11 675 701#1 701#2 888#0 888#1 1480#0 1480#1 1480#2 1480#3 741#0 741#1 879#11 878#1 878#2 878#3 -733#3 -733#2 -733#1 -733#0 -692 777 779 778 -776 -779"/>
    </vehicle>
    <vehicle id="bicycle_1_307" type="bicycle" depart="20635.00" departLane="best">
        <route edges="1547 257#0 257#1 -584#1 585#0 585#1 585#2 585#3 569#0 569#1 569#2 439#0 439#2 439#4 439#6 523 528"/>
    </vehicle>
    <vehicle id="bicycle_1_412" type="bicycle" depart="20676.00" departLane="best">
        <route edges="-748#6 -748#5 -748#4 -748#3 -748#2 -748#1 -748#0 -907#1 -907#0 -888#5 -888#4 -888#3 -888#2 -888#1 -888#0 863#0 863#1 863#2 -369#1 -369#0"/>
    </vehicle>
    <vehicle id="bicycle_1_664" type="bicycle" depart="20720.00" departLane="best">
        <route edges="907#1 748#0 748#1 748#2 748#3 739#0 739#1 739#2 739#3 708#0 708#1 -748#0 -907#1 -907#0 -711#1"/>
    </vehicle>
    <vehicle id="bicycle_1_421" type="bicycle" depart="20806.00" departLane="best">
        <route edges="1481 593#0 593#1 593#2 593#3 593#4 593#5 564#0 588#1 588#2 691#2 -580 -632 -683#3 -683#2 -683#1 -683#0 -617#0 111 862#0 709 701#2 888#0 888#1 888#2 888#3 888#4 888#5 907#0 907#1 748#0 748#1"/>
    </vehicle>
    <vehicle id="bicycle_1_574" type="bicycle" depart="20851.00" departLane="best">
        <route edges="520#0 -524#1 -524#0 -519#2 -519#1 -519#0 -582#10 -582#9 -582#8 -582#7 -582#6 -582#5 -582#4 630#1 630#2 630#3 -617#5 -617#4 -617#3 -617#2 -617#1 -617#0 111 862#0 862#1 -730#11 -864#2 -864#1 -864#0 1484#1 1484#2 787#0 787#1 787#2 787#3 -748#6 -748#5 -748#4 -748#3 -748#2 -748#1 -748#0 -907#1 -907#0"/>
    </vehicle>
    <vehicle id="bicycle_1_631" type="bicycle" depart="20884.00" departLane="best">
        <route edges="593#1 593#2 593#3 593#4 593#5 564#0 588#1 588#2 691#2 -580 -632 -683#3 -683#2 -683#1 -683#0 -617#0 111 862#0 709 701#2 888#0 888#1 888#2 888#3 888#4 888#5 907#0 907#1 748#0 -708#1 -708#0"/>
    </vehicle>
    <vehicle id="bicycle_1_517" type="bicycle" depart="20926.00" departLane="best">
        <route edges="579#4 579#5 579#6 -583#1 -583#0 593#5 564#0 588#1 588#2 -691#0 726#0 726#1 726#2 857#2 857#3 736 879#1 879#2 879#3 879#4 879#5 879#6 879#7 879#8 879#9 879#11 878#1 878#2 878#3 878#4"/>
    </vehicle>
    <vehicle id="bicycle_1_528" type="bicycle" depart="20973.00" departLane="best">
        <route edges="582#10 582#11 519#1 519#2 519#3 351#1 351#2 529#0 529#1 529#2 352 -353#1"/>
    </vehicle>
    <vehicle id="bicycle_1_802" type="bicycle" depart="21039.00" departLane="best">
        <route edges="-884#0 855#0 855#1 855#2 855#3 855#4 520#7 520#8 520#9 416#1 247#4 247#1 -562#6 -562#5 -562#4 -562#3 -562#2 -562#1 -562#0 561#1 561#2 1333#0 1333#1 1333#2 1333#3 1334#0 1334#1 1334#2 859 600 630#3 -617#5 -617#4 -617#3 -617#2 -617#1 -617#0 111 862#0 862#1 -730#11 -864#2 -864#1 -864#0 1484#1 1484#2 787#0 787#1 787#2 787#3 787#4 787#5 -816#1 -816#0 298#0 298#1 -929#7 -929#6 -929#5 -929#4 -929#3 -929#2 -929#1 -929#0 -1404#9 -1404#8 -1404#7 -1404#6 -1404#5 -1404#3 -1404#2 -1404#1 -1404#0 443#0"/>
    </vehicle>
    <vehicle id="bicycle_1_559" type="bicycle" depart="21041.00" departLane="best">
        <route edges="752#0 752#1 752#2 752#3 752#4 752#5 752#6 730#3 730#4 730#5 730#6 730#7 730#8 730#9 730#10 -864#2"/>
    </vehicle>
    <vehicle id="bicycle_1_422" type="bicycle" depart="21044.00" departLane="best">
        <route edges="627#0 627#1 627#2 627#3 617#4 617#5 619 620 572#0 572#1 572#2 -593#5 -593#4 -593#3 -593#2 -593#1 -593#0 586 569#1 569#2 569#3 569#4 585#3 569#0"/>
    </vehicle>
    <vehicle id="bicycle_2_217" type="bicycle" depart="21052.00" departLane="best">
        <route edges="931#0 839 -836#0 -1404#21 -1404#20 -1404#19 -1404#18 -1404#17 -1404#16 -1404#13 -1404#12 -1404#11 -1404#10 -1404#9 -1404#8 -1404#7 -1404#6 -1404#5 -1404#3 -1404#2 -1404#1 -1404#0 443#0 443#1 15#2 15#3 15#4 15#5 737#0 737#2 878#3 878#4 695 734#0 734#1 734#2 734#3 734#4 732#0 732#1 732#2 732#3 732#4 732#5 857#0 857#1 -726#2 -726#1 -726#0 691#0 -588#2 -588#1 -564#0 -593#5 -593#4 -593#3 575#0 575#1 -578"/>
    </vehicle>
    <vehicle id="bicycle_1_588" type="bicycle" depart="21112.00" departLane="best">
        <route edges="-711#1 724 878#2 878#3 878#4 695 734#0 734#1 734#2 734#3 734#4 732#0 732#1 732#2 732#3 747#0 282#1 282#2 -700#1 -700#0 -682#1 -682#0 879#7 879#8 879#9 -741#1 -741#0 -1480#3 -1480#2 -1480#1 -1480#0 -888#1 -888#0 863#0 863#1 863#2"/>
    </vehicle>
    <vehicle id="bicycle_1_791" type="bicycle" depart="21131.00" departLane="best">
        <route edges="-746#2 -746#1 -746#0 -1369#1 1371 728#1 728#2 728#3 728#4 728#5 730#8 717 698 1484#2 1484#3 743#0 743#1"/>
    </vehicle>
    <vehicle id="bicycle_1_915" type="bicycle" depart="21133.00" departLane="best">
        <route edges="257#3 257#0 579#0 579#1 579#2 579#3 579#4 579#5 579#6 583#2 630#1 621#2 594 447 561#0 562#0 562#1 562#2 562#3 562#4 562#5 562#6 247#2 247#3 -416#1 -520#9 -520#8 -522 1166"/>
    </vehicle>
    <vehicle id="bicycle_2_109" type="bicycle" depart="21148.00" departLane="best">
        <route edges="341#1 -1363#3 -1363#2 -1363#1 -1363#0 1379#6 1379#7 1361#1 650#0 -652#2 -652#1 -652#0 1319#0 1319#1 1494#0 1494#1 1494#2 1320 1315#1 1315#2 -542#1 -542#0 -1312#5 -1312#4 -1312#3 -1312#2 -1312#1 -1312#0 1423 944#1 944#2 944#3 1302#1 1302#2 1302#3 1302#4 1302#5 1302#6 1302#7 1302#8 1302#9 1302#10 1302#11 1302#12 1302#13 1302#14 850#1 850#2 850#3 -1327#1 -1327#0 563#0 563#1 563#2 563#3 563#4 563#5 1334#0 1334#1 1334#2 859 600 630#3 619 620 618#0 618#1 -691#5 -691#4 -691#3 -691#2 -691#0 726#0 726#1 726#2 857#2 857#3 736 1192 727"/>
    </vehicle>
    <vehicle id="bicycle_2_22" type="bicycle" depart="21157.00" departLane="best">
        <route edges="-368#0 889#1 489#2 489#3 489#4 23 -1303#0 238#0 238#1 -491#1 -491#0 -499#2 -499#1 -499#0 521#1 257#3 257#0 579#0 579#1 579#2 579#3 579#4 579#5 579#6 -583#1 -583#0 593#5 -572#2 -572#1 -572#0 582#1 582#2"/>
    </vehicle>
    <vehicle id="bicycle_1_878" type="bicycle" depart="21200.00" departLane="best">
        <route edges="-1480#0 -888#1 -888#0 863#0 863#1 863#2 617#0 683#0 683#1 683#2 683#3 632 580 -691#2 -588#2 -588#1 -564#0 -593#5 -593#4 592#0 592#1 592#2 592#3 592#4"/>
    </vehicle>
    <vehicle id="bicycle_1_66" type="bicycle" depart="21224.00" departLane="best">
        <route edges="-816#0 298#0 298#1 298#2 298#3 816#0 816#1 816#2 -787#4 -787#3 -787#2 -787#1 -787#0 1484#3 1484#0 1484#1 -698 -717 -730#8 -730#7 -730#6 -730#5 -730#4"/>
    </vehicle>
    <vehicle id="bicycle_1_940" type="bicycle" depart="21230.00" departLane="best">
        <route edges="1229#1 1227 730#1 730#2 730#3 730#4 730#5 730#6 730#7 730#8 730#9 730#10 -864#2 -723 -730#9 -730#8 -730#7 -730#6 -730#5 -730#4"/>
    </vehicle>
    <vehicle id="bicycle_1_806" type="bicycle" depart="21231.00" departLane="best">
        <route edges="494#3 494#4 351#2 351#3 351#4 -350 -519#2 -519#1 -519#0 -582#10 -582#9 -582#8 -582#7 -582#6 -582#5 -582#4 630#1 630#2 630#3 -617#5 -617#4 -617#3 -617#2 -617#1 -617#0 111 862#0 862#1 -730#11 -864#2 -864#1 -864#0 1484#1 1484#2 787#0 787#1 787#2 787#3 787#4 787#5 -816#1 -816#0 298#0 298#1 -929#7 -929#6 -929#5 -929#4 -929#3 -929#2 -929#1 -929#0 -1404#9 -1404#8 -1404#7 -1404#6 -1404#5 -1404#3 -1404#2 -1404#1 -1404#0 443#0"/>
    </vehicle>
    <vehicle id="bicycle_2_203" type="bicycle" depart="21260.00" departLane="best">
        <route edges="377#0 377#1 380 -377#0 1316#2 1316#3 -538#3 -538#2 -538#1 -538#0 -1352#1 650#0 -652#2 -652#1 -652#0 1319#0 1319#1 1494#0 1494#1 1494#2 1320 1315#1 1315#2 -542#1 -542#0 -1312#5 -1312#4 -1312#3 -1312#2 -1312#1 -1312#0 1423 944#1 944#2 944#3 1302#1 1302#2 1302#3 1302#4 1302#5 1302#6 1302#7 1302#8 1302#9 1302#10 1302#11 1302#12 1302#13 1302#14 850#1 850#2 850#3 -1327#1 -1327#0 563#0 563#1 563#2 563#3 563#4 563#5 1334#0 1334#1 1334#2 595 594 447 561#0 562#0 562#1 562#2 562#3 562#4 562#5 562#6 247#2"/>
    </vehicle>
    <vehicle id="bicycle_1_769" type="bicycle" depart="21261.00" departLane="best">
        <route edges="111 369#0 369#1 617#0 617#1 617#2 617#3 617#4 617#5 619 620 582#1 582#2 582#3 582#4 582#5 582#6 582#7 582#8 582#9 582#10 582#11 1547 257#0 257#1 257#2 -521#1"/>
    </vehicle>
    <vehicle id="bicycle_1_86" type="bicycle" depart="21280.00" departLane="best">
        <route edges="-296 -10 443#0 443#1 15#2 15#3 15#4 15#5 737#0 737#2 878#3 878#4 695 734#0 734#1 734#2 734#3 734#4 732#0 732#1 732#2 732#3 732#4 732#5 857#0 857#1 -726#2 -726#1 -726#0 691#0 691#2 691#3 691#4 691#5 -618#1 -618#0 582#1 582#2 582#3 582#4 582#5 582#6 582#7 582#8 582#9 582#10 582#11 519#1 519#2 519#3 351#1 -494#4 -494#3 -494#2 -502#2 -502#1 -502#0 -1308#4 -1308#3 -1308#2 -1308#1 -1308#0"/>
    </vehicle>
    <vehicle id="bicycle_1_84" type="bicycle" depart="21286.00" departLane="best">
        <route edges="585#3 1481 593#0 593#1 593#2 593#3 593#4 593#5 564#0 588#1 588#2 691#2 691#3 691#4 1172#0"/>
    </vehicle>
    <vehicle id="bicycle_2_190" type="bicycle" depart="21315.00" departLane="best">
        <route edges="-1493 -896 644 603 -1348#2 -1348#1 -1348#0 -1315#6 -1315#5 -542#0 -1312#5 -1312#4 -1312#3 -1312#2 -1312#1 -1312#0 1423 944#1 944#2 944#3 1302#1 1302#2 1302#3 1302#4 1302#5 1302#6 1302#7 1302#8 1302#9 1302#10 1302#11 1302#12 1302#13 1302#14 850#1 850#2 850#3 -1327#1 -1327#0 563#0 563#1 563#2 563#3 563#4 563#5 1334#0 1334#1 1334#2 595 594 447 561#0 1170#0 1170#1 1170#2 574 589 568 582#9 582#10 582#11 1547 257#0 257#1 257#2 -521#1 -521#0 499#1 499#2"/>
    </vehicle>
    <vehicle id="bicycle_1_950" type="bicycle" depart="21343.00" departLane="best">
        <route edges="1218#2 -292#0 -790#1 -790#0 903 902#3 902#4 893 -812#1 -1404#0 443#0 443#1 15#2 15#3 15#4 15#5 737#0 737#2 878#3 878#4 695 734#0 734#1 734#2 734#3 734#4 732#0 732#1 732#2 732#3 732#4 732#5 857#0 857#1 -726#2 -726#1 -720 858#1 858#2 455 -683#2 -696 -622#3 -622#2 631 627#0 628 -394#3 -394#2"/>
    </vehicle>
    <vehicle id="bicycle_1_50" type="bicycle" depart="21358.00" departLane="best">
        <route edges="-807 818#1 908 730#0 730#1 730#2 730#3 730#4 730#5 730#6 730#7 730#8 717 698 1484#2 1484#3 743#0 743#1 -707#1 -707#0"/>
    </vehicle>
    <vehicle id="bicycle_2_155" type="bicycle" depart="21364.00" departLane="best">
        <route edges="-917#4 -917#3 -917#2 -917#0 -1252#4 -1252#2 -1252#1 -1252#0 -1343#1 -1343#0 1341#14 1341#15 1341#16 918 920 622#0 622#1 622#2 622#3 -617#2 -617#1 -617#0 111 862#0 709 701#2 888#0 888#1 1480#0 1480#1 1480#2 1480#3 741#0 741#1 879#11 878#1 878#2 878#3 -733#3 -733#2 -733#1 -733#0 -692 679 -688 -689"/>
    </vehicle>
    <vehicle id="bicycle_1_382" type="bicycle" depart="21398.00" departLane="best">
        <route edges="884#0 884#1 -529#1 -529#0 351#3 351#4 -350 -519#2 -519#1 1547 257#0 257#1 257#2 -521#1 -521#0 499#1 527"/>
    </vehicle>
    <vehicle id="bicycle_2_87" type="bicycle" depart="21423.00" departLane="best">
        <route edges="-651 269#1 269#2 756 1355#8 1355#9 1355#10 1355#11 -825#5 -825#3 -825#2 -825#1 -825#0 1361#1 650#0 -652#2 -652#1 -652#0 1319#0 1319#1 1494#0 1494#1 1494#2 1320 1315#1 1315#2 -542#1 -542#0 -1312#5 -1312#4 -1312#3 -1312#2 -1312#1 -1312#0 1423 944#1 944#2 944#3 1302#1 1302#2 1302#3 1302#4 1302#5 1302#6 1302#7 1302#8 1302#9 1302#10 1302#11 1302#12 1302#13 1302#14 850#1 850#2 850#3 -1327#1 -1327#0 563#0 563#1 563#2 563#3 563#4 563#5 1334#0 1334#1 1334#2 859 600 630#3 -617#5 -617#4 -617#3 -617#2 -617#1 -617#0 111 862#0 862#1 -730#11 -864#2 -864#1 -864#0 1484#1 1484#2 787#0 787#1 787#2 787#3 787#4 787#5 -816#1 -816#0 298#0 298#1 -929#7 -929#6 -929#5 -929#4 -929#3 -929#2 -929#1 -929#0 -1404#9 -1404#8 -1404#7 -1404#6 -1404#5 -1404#3 -1404#2 -1404#1 812#1 812#2"/>
    </vehicle>
    <vehicle id="bicycle_2_100" type="bicycle" depart="21446.00" departLane="best">
        <route edges="1466#0 1465 1393#1 1393#2 1393#3 1390#2 1390#3 1390#4 1390#5 -1404#11 -1404#10 -1404#9 -1404#8 -1404#7 -1404#6 -1404#5 -1404#3 -1404#2 -1404#1 812#1 812#2 902#0 902#1 902#2 902#3 -817#1 -804#2 -804#1 -804#0 1492 895#2 817#0"/>
    </vehicle>
    <vehicle id="bicycle_1_272" type="bicycle" depart="21452.00" departLane="best">
        <route edges="748#6 -787#3 -787#2 -787#1 -787#0 1484#3 1484#0 864#0 864#1 864#2 730#11 675 735 863#2 617#0 683#0 683#1 683#2 683#3 632 580 -691#2 -588#2 -588#1 -564#0 -593#5 -593#4 592#0 592#1 1173#2"/>
    </vehicle>
    <vehicle id="bicycle_1_955" type="bicycle" depart="21599.00" departLane="best">
        <route edges="1484#3 1484#0 864#0 864#1 864#2 730#11 675 735 863#2 617#0 683#0 683#1 683#2 683#3 632 580 -691#2 -588#2 -588#1 -564#0 -593#5 -593#4 -593#3 -593#2 -593#1 -593#0 586 569#1 569#2 439#0 439#2 439#4 439#6 439#7 439#9 360#3 360#4 360#5 244#0 244#1 244#2 357 355#1 355#2"/>
    </vehicle>
    <vehicle id="bicycle_1_423" type="bicycle" depart="21600.00" departLane="best">
        <route edges="519#1 519#2 519#3 351#1 351#2 351#3 351#4 -350 -519#2 -519#1 -519#0 -582#10 -582#9 -582#8 -582#7 -582#6 -582#5 -582#4 630#1 630#2 630#3 -617#5 -617#4 -617#3 -617#2 -617#1 -617#0 111 862#0 862#1 -730#11 -864#2 -864#1 -864#0 1484#1 1484#2 1484#3 743#0 743#1 -888#0"/>
    </vehicle>
    <vehicle id="bicycle_1_391" type="bicycle" depart="21651.00" departLane="best">
        <route edges="111 369#0 369#1 617#0 683#0 683#1 683#2 683#3 632 580 -691#2 -588#2 -588#1 -564#0 -593#5 -593#4 -593#3 -593#2 -593#1 -593#0 586 569#1 569#2 439#0 439#2 439#4 439#6 439#7 439#9 360#3 360#4 -240#1 -240#0"/>
    </vehicle>
    <vehicle id="bicycle_1_755" type="bicycle" depart="21685.00" departLane="best">
        <route edges="-778 -779 -777 679 -688 -689 -775 -793 -805"/>
    </vehicle>