<?xml version="1.0" encoding="UTF-8"?>

<!--
    Monaco SUMO Traffic (MoST) Scenario
    Copyright (C) 2019
    Lara CODECA

    This program is free software: you can redistribute it and/or modify
    it under the terms of the GNU General Public License as published by
    the Free Software Foundation, either version 3 of the License, or
    (at your option) any later version.

    This program is distributed in the hope that it will be useful,
    but WITHOUT ANY WARRANTY; without even the implied warranty of
    MERCHANTABILITY or FITNESS FOR A PARTICULAR PURPOSE.  See the
    GNU General Public License for more details.

    You should have received a copy of the GNU General Public License
    along with this program.  If not, see <http://www.gnu.org/licenses/>.
-->

<routes xmlns:xsi="http://www.w3.org/2001/XMLSchema-instance" xsi:noNamespaceSchemaLocation="http://sumo.dlr.de/xsd/routes_file.xsd"> 
    <vehicle id="special_1-3_106" type="special" depart="18021" departLane="best" arrivalPos="random">
        <route edges="-153558 153559#1 153559#2 -152898#0 153560 152975#2 152900#0 152900#1 152982#4 152973 -152895#1 153476#1 153476#2 153476#3 153476#5 153476#6 153476#7 153476#8 153476#9 153476#10 153476#11 153476#12 153476#13 153476#14 153476#15 153476#16 153476#17 153476#18 153476#19 153476#20 153476#22 153476#23 153476#24 153476#25 153476#26 -152303 -153342 -152302 -153477#1 -152903"/>
    </vehicle>
    <vehicle id="special_1-3_248" type="special" depart="18060" departLane="best" arrivalPos="random">
        <route edges="-152582#3 -152582#2 -152582#1 -152349 152582#2 152582#3 152582#4 152454#2 152454#3 152454#4 -152453 -152223 -152169 -152605#2 -152605#1 -152605#0 -152667#10 -152667#9 -152667#8 -152667#7 -152667#6 -152667#5 -152667#4 -152667#3 -152667#2 -152667#1 152702#0 152702#1 -152775#5 -152775#4 -152775#3 -152775#2 -152775#0 152810#0 152810#1 152810#2 152820 152960#1 152960#2 152960#3 152960#4 152305 152312#0 152312#1 152312#2 -152309 152318#1 152318#2 -152308 152281 152530 -152330#5 -152330#4 -152330#3 -152330#2 -152330#1 -152330#0 153637 152405 -153007#6 -153456#6 152854#0 152854#1"/>
    </vehicle>
    <vehicle id="special_1-1_240" type="special" depart="18090" departLane="best" arrivalPos="random">
        <route edges="152865 -152803 -152799 -152760 -152763 152776 152817#0 152817#1 152817#2 152817#3 152959#5 152959#1 152959#2 152959#3 -152821#2 -152821#1 -152821#0 152137#6 152137#7 152137#0 152138 152968 -152270 -152418 152132 152421 -152895#1 -153476#0"/>
    </vehicle>
    <vehicle id="special_1-2_173" type="special" depart="18110" departLane="best" arrivalPos="random">
        <route edges="153273#0 153273#1 153273#2 152960#10 152959#2 152959#3 -152821#2 -152821#1 -152821#0 152137#6 152137#7 152137#0 152138 152968 -152270 -152418 -152958 153476#1 153476#2 153476#3 153476#5 153476#6 153476#7 153476#8 153476#9 153476#10 153476#11 -153462#5 -153462#4 -153462#3 -153462#2 -153462#1 -153462#0 -153476#13"/>
    </vehicle>
    <vehicle id="special_3-1_48" type="special" depart="18112" departLane="best" arrivalPos="random">
        <route edges="-153458#0 -153459#0 -152256 153460 -153460 152256 153459#0 153459#1 153458#1 153005#0 153005#1 152235 153338 153641 152330#0 152330#1 152330#2 152330#3 152330#4 152330#5 152166 152168#0 152168#1 152399#1 152399#2 152901#0 152901#1 152988 152814#0 152814#1 152814#2 152814#3 152814#4 152814#5 152814#6 152814#7 152814#8 152814#9 152814#10 152814#11 152759 152230 152785#0 152819 152944#2 152234 152701#0 152767#0 152767#1 -152780"/>
    </vehicle>
    <vehicle id="special_1-1_171" type="special" depart="18164" departLane="best" arrivalPos="random">
        <route edges="-152788 -152868 -152863 -152869 -152877 -152880#2 -152880#1 -152880#0 -152882 -152881 -152884#1 -152884#0 -152885 152889 -152861 -152860 152776 152817#0 152817#1 152817#2 152817#3 152959#5 152779 152818#0 152818#1 152818#2 152818#3 152816#0 152816#1 152816#2 152816#3 152816#4 152816#5 -152810#2 -152810#1 -152810#0 152775#0 -152381 -152716 -152767#3 -152767#2 -152780 -152701#2 -152701#1 152767#0"/>
    </vehicle>
    <vehicle id="special_2-1_108" type="special" depart="18179" departLane="best" arrivalPos="random">
        <route edges="152873#2 152873#3 152298 -152646 -152398#1 -152398#0 152458#3 -152451 152874#1 152874#2 153638 152297#0 152297#0-AddedOffRampEdge 152297#1 152967 152816#2 152816#3 152816#4 152816#5 -152810#2 -152810#1 -152804 152939#1 152939#2"/>
    </vehicle>
    <vehicle id="special_2-1_54" type="special" depart="18183" departLane="best" arrivalPos="random">
        <route edges="-152992 -153492 -153357#2 -153354#2 -153354#1 -153354#0 -153359#1 -153359#0 -153323#4 -153323#3 -153323#2 -153323#1 -153323#0 -153365#4 -153365#3 -153365#1 -153365#0 152346#1 152221 152585#1 152350 152582#0 152582#1 152582#2 152582#3 152582#4 152454#2 152454#3 152454#4 -152453 -152223 -152169 -152605#2 -152605#1 -152605#0 -152667#10 -152667#9 -152667#8 -152667#7 -152667#6 -152667#5 -152667#4 -152667#3 -152667#2 -152667#1 152702#0 152702#1 -152939#5 -152767#3 -152767#2 -152767#1 -152767#0 152701#1 152701#2"/>
    </vehicle>
    <vehicle id="special_1-1_85" type="special" depart="18199" departLane="best" arrivalPos="random">
        <route edges="152802 152818#1 152818#2 152818#3 152816#0 152816#1 152816#2 152816#3 152816#4 152816#5 -152810#2 -152810#1 -152810#0 152775#0 -152381 -152716 -152767#3 -152767#2 -152767#1 -152767#0 -152701#0 152229 152943#0 152793 152785#2 152167 152969#0 152969#1 152969#2 152969#3 152987#0 152987#1 152987#2 -152987#2 -152987#1 -152987#0 -152969#3 -152969#2 -152969#1"/>
    </vehicle>
    <vehicle id="special_2-1_5" type="special" depart="18213" departLane="best" arrivalPos="random">
        <route edges="-152981 152851#2 -152931#1 153007#0 153007#2 153007#3 153007#4 153007#5 153007#6 152406 153636#1 153002#0 152838 153005#1 152235 153338 153641 152330#0 152330#1 152330#2 152330#3 152330#4 152330#5 152166 -153006#3 -153006#2 -153006#1 -153006#0 -152899#1 -152899#0 152402#0 152402#1 152402#2 152938#0 152938#1 152938#2 152419#1 152308 152318#3 152318#4 152309 152312#3 -152305 -152831#2 -152831#1 152386#1 152386#2 152386#3"/>
    </vehicle>
    <vehicle id="special_1-3_129" type="special" depart="18262" departLane="best" arrivalPos="random">
        <route edges="153413#5 153413#6 153413#7 153413#8 153413#9 153413#10 153413#11 153413#12 153413#13 153415#0 153415#1 153331#0 153331#1 153331#2 153331#4 153331#5 153331#6 153331#7 153331#8 153331#9 153331#10 153331#11 153329#4 153329#5 153412#5 152251 153385#0 153385#1 152250 153383#0 -153386 152176#1 152176#2 152177 153384#0 153384#1 153384#2 152628#1 -153387#2 -153387#1 -153392#1 -153391#1 -153391#0 152736#0 152736#1 152736#2 -152734#0 -153424#0 -153433#0 -153451#6 153435#0 153435#1 153435#2 153435#3 152416#1 152413#0 152413#1 152413#2 152413#3 152252 153395 152253 -153436"/>
    </vehicle>
    <vehicle id="special_2-1_145" type="special" depart="18285" departLane="best" arrivalPos="random">
        <route edges="-152992 -153492 -153357#2 -153354#2 -153354#1 -153354#0 -153359#1 -153359#0 -153323#4 -153323#3 -153323#2 -153323#1 -153323#0 -153363#3 152560 -152581#4 -152581#3 -152581#2 -152581#1 -152581#0 152345#1 -152579#1 -152579#0 -152220 -152587#3 -152587#2 -152587#1 -152587#0 152224 152170#0 152170#1 152607 152363#3 152363#0 152363#1 -152669#1 -152669#0 -152226 -152290 -152761 -152291 -152800 -152292 -152794 152293 152385 -152206 152461 152311 152312#2 -152309 152318#1 152318#2 152318#3 152139 152137#0 152138 152968 152419#0 -152938#2"/>
    </vehicle>
    <vehicle id="special_3-1_162" type="special" depart="18322" departLane="best" arrivalPos="random">
        <route edges="-153458#0 -153459#0 -152256 153460 -153460 152256 153459#0 153459#1 153458#1 153005#0 153005#1 152235 153338 153641 152330#0 152330#1 152330#2 152330#3 152330#4 152330#5 152166 -153006#3 -153006#2 -153006#1 -153006#0 -152899#1 -152899#0 152402#0 152402#1 152402#2 152938#0 152938#1 152938#2 152419#1 152308 152318#3 152318#4 152309 152312#3 152312#0 152271 152423 152206 -152385 -152293 152794 152292 152800 152291 152761 152290 152287 152654#1 152654#2 152534#0 152534#2 152534#4 152534#5 152534#6 152534#7 -152347#1 152460 -152459#0"/>
    </vehicle>
    <vehicle id="special_3-1_293" type="special" depart="18324" departLane="best" arrivalPos="random">
        <route edges="153459#1 153458#1 153005#0 153005#1 152235 153338 153641 152330#0 152330#1 152330#2 152330#3 152330#4 152330#5 152166 152168#0 152168#1 152399#1 152399#2 152901#0 152901#1 152988 152814#0 152814#1 152814#2 152814#3 152814#4 152814#5 152814#6 152814#7 152814#8 152814#9 152814#10 152814#11 152759 152230 152785#0 152819 152944#2 152234 152701#0 152701#1 152701#2 152701#3 152701#4 152701#5 152703 152704 152667#1 152667#2 152667#3 152667#4 152667#5 152667#6 152667#7 152667#8 152667#9 152667#10 152667#11 152605#1 152605#2 152602 -152170#1 -152170#0 -152224 152587#0"/>
    </vehicle>
    <vehicle id="special_1-1_63" type="special" depart="18334" departLane="best" arrivalPos="random">
        <route edges="152163#0 152163#1 152397#0 152397#1 152397#2 -152163#1 -152163#0 152873#3 152298 -152646 -152398#1 -152398#0 152458#3 -152451 152874#1 152874#2 153638 152297#0 152297#0-AddedOffRampEdge 152297#1 152967 152816#2 152816#3 152816#4 152816#5 -152810#2 -152810#1 -152810#0 152775#0 152775#2 152775#3 152775#4 152775#5 -152702#1 -152702#0 152667#1 152667#2 152667#3 152667#4 152667#5 152667#6 152667#7 152667#8 152667#9 152667#10 152667#11 152605#1 152605#2 152169 152223 152453 152454#1 152454#2 152615#0 152615#1 152615#2 -152319 -152965#1 152455 152456#0 152456#1"/>
    </vehicle>
    <vehicle id="special_3-1_189" type="special" depart="18358" departLane="best" arrivalPos="random">
        <route edges="152304 152927 152257 153477#0 153477#1 152302 153342 152303 -153476#26 153479#0 153479#1 153479#2 153479#3 153479#5 153479#6 153479#7 153479#8 153479#9 153479#11 152330#1 152330#2 152330#3 152330#4 152330#5 152166 152168#0 152168#1 152399#1 152399#2 152901#0 152901#1 152988 152814#0 152814#1 152814#2 -152836#6 -152836#5 -152836#4 -152836#3"/>
    </vehicle>
    <vehicle id="special_1-2_213" type="special" depart="18379" departLane="best" arrivalPos="random">
        <route edges="152766#1 152784#0 152784#1 -152386#2 -152386#1 -152831#0 152816#4 152816#5 -152810#2 -152810#1 -152810#0 152775#0 -152381 -152716 -152767#3 -152767#2 -152780 -152706#3 -152706#2 152707#0 152707#1 153404#1 153404#2 153404#3 152367"/>
    </vehicle>
    <vehicle id="special_1-2_8" type="special" depart="18420" departLane="best" arrivalPos="random">
        <route edges="-152823#1 -152823#0 152832#4 152832#5 152832#6 152870#4 152870#5 -152899#1 -152899#0 152402#0 152402#1 -153008#7 -153008#6 -153008#5 -153008#4 -153008#3 -153008#2 -153008#1 -153008#0 153476#10 153476#11 153476#12 153476#13 153476#14 153476#15 153476#16 153476#17 153476#18 153476#19 153476#20 153476#22 -153010#1 -153010#0 -153470 153474"/>
    </vehicle>
    <vehicle id="special_2-1_62" type="special" depart="18444" departLane="best" arrivalPos="random">
        <route edges="153331#6 153331#7 153331#8 -153330#1 -153330#0 153330#0 153330#1 -153331#8 -153331#7 -153331#6 -153331#5 -153331#4 -153331#2 -153331#1 -153331#0 -153415#1 -153415#0 153413#14 153413#15 153413#16 152997 152999 152706#0 152706#1 152706#2 152706#3 152780 152767#2 152767#3 152716 152381 -152775#0 152810#0 152810#1 152810#2 152820 152960#1 152960#2 152960#3 152960#4 152960#5 152960#6 152960#7 152960#8 -153273#2 -153273#1 -152135#1 -152135#0 152802"/>
    </vehicle>
    <vehicle id="special_2-1_60" type="special" depart="18456" departLane="best" arrivalPos="random">
        <route edges="-153559#0 -152887#1 -152887#0 152898#0 152898#1 152898#2 -152299 152857 152137#3 152137#4 152137#5 152137#6 152137#7 -152139 152318#4 152318#1 152318#2 -152308 152281 152530 -152330#5 -152330#4 152407 -152407 152330#4 152330#5 152166 152168#0 152168#1 152399#1 152399#2 152399#3 -152891#1 -152891#0 152300 -152892#1 -152892#0 -153444#4 -153444#3 -153444#2 -153444#0 -153441#3 -153441#2"/>
    </vehicle>
    <vehicle id="special_3-1_88" type="special" depart="18491" departLane="best" arrivalPos="random">
        <route edges="153029 -153394#1 -153394#0 -152413#2 -152413#1 -152413#0 152412 -152537 152928#4 152411 152531 152328#1 152288 152855 152210 152536 152394 153641 152330#0 152330#1 152330#2 152330#3 152330#4 152330#5 152166 152168#0 152168#1 152399#1 152399#2 152901#0 152901#1 152988 152814#0 152814#1 152814#2 152814#3 152814#4"/>
    </vehicle>
    <vehicle id="special_1-1_229" type="special" depart="18540" departLane="best" arrivalPos="random">
        <route edges="153006#0 153006#1 153006#2 153006#3 152168#0 152168#1 152399#1 152399#2 152901#0 152901#1 152320 152403 152132 152421 152895#2 152982#0 152982#1 152982#2 -152983 152873#0 152873#1 152873#2 152163#0"/>
    </vehicle>
    <vehicle id="special_2-1_45" type="special" depart="18541" departLane="best" arrivalPos="random">
        <route edges="153391#1 -153392#0 153327#0 153327#1 153327#2 153327#3 153327#4 153327#5 153327#6 153327#7 153327#8 153327#9 153327#11 153327#12 -153335#7 -153335#6 -153335#5 -153335#4 -153335#3 -153335#2 -153335#1 -153335#0 -153444#0 -153441#3 -153441#2 -153441#1 153443 152812#1 152812#2 152812#3 152812#4 152812#5 152814#8 152814#9 152814#10 152814#11 152759 152230 152785#0 152785#1 152785#2 152167 152969#0 152969#1 152969#2 152969#3 -152795#1 152808 152959#3 152959#4 -152817#3 -152817#2 -152817#1 -152817#0 -152776 152763 152760 152799 152803 -152865 -152947 152888 152876 152859"/>
    </vehicle>
    <vehicle id="special_1-1_97" type="special" depart="18569" departLane="best" arrivalPos="random">
        <route edges="152320 152403 152418 152270 152419#0 152419#1 152281 152530 -152330#5 -152330#4 152407 -152407 152330#4 152330#5 152166 152168#0 152168#1 152399#1 152399#2 152901#0 152901#1 152988 152814#0 152814#1 152814#2 152814#3 152814#4 152814#5 152814#6"/>
    </vehicle>
    <vehicle id="special_1-3_102" type="special" depart="18580" departLane="best" arrivalPos="random">
        <route edges="152670#1 152670#2 152670#3 152670#4 152282 -152290 -152761 -152291 -152800 -152292 -152794 152293 152385 -152206 152461 152311 152312#2 -152309 152318#1 152318#2 -152308 152281 152530 -152330#5 -152330#4 -152330#3 -152330#2 -152330#1 -152330#0 153637 153634#1 153636#1 153002#0 153002#1 -153458#1 -153458#0 -153459#0 -152256"/>
    </vehicle>
    <vehicle id="special_1-1_43" type="special" depart="18588" departLane="best" arrivalPos="random">
        <route edges="-152298 -152873#3 -152873#2 -152873#1 -152873#0 152983 152982#3 152982#4 152973 -152895#1 -153476#0 152418 152270 152419#0 152419#1 152281 152530 -152330#5 -152330#4 152407 -152407 152330#4 152330#5 152166 152168#0 152168#1 152399#1 152399#2 152901#0 152901#1 152320 152403"/>
    </vehicle>
    <vehicle id="special_2-1_9" type="special" depart="18591" departLane="best" arrivalPos="random">
        <route edges="-152739 -152736#2 -152736#1 -152736#0 153391#0 153391#1 -153392#0 153327#0 153327#1 153327#2 153327#3 153327#4 153327#5 153327#6 153327#7 153327#8 153327#9 153327#11 153327#12 -153335#7 -153335#6 -153335#5 -153335#4 -153335#3 -153335#2 -153335#1 -153335#0 153444#2 153444#3 153444#4 153444#5 152892#1 -152300 152891#0 152891#1 152399#0 152399#1 152399#2 152901#0 152901#1 152320 152403 152132 152421 152895#2 152982#0 152982#1 152982#2 152982#3 -152900#1 -152887#2 -153558"/>
    </vehicle>
    <vehicle id="special_3-1_265" type="special" depart="18622" departLane="best" arrivalPos="random">
        <route edges="153477#1 152302 153342 152303 -153476#26 -153476#25 -153476#24 -153476#23 -153476#22 -153476#20 -153476#19 -153476#18 -153476#17 -153476#16 -153476#15 -153476#14 -153476#13 -153476#12 -153476#11 -153476#10 -153476#9 -153476#8 -153476#7 -153476#6 -153476#5 -153476#3 -153476#2 -153476#1 -153476#0 152418 152270 152419#0 152419#1 152308 152318#3 152318#4 152309 152312#3 -152305 152960#5 152960#6 152766#0 152766#1 152784#0 152784#1 -152386#2 -152386#1 152831#1"/>
    </vehicle>
    <vehicle id="special_1-2_35" type="special" depart="18625" departLane="best" arrivalPos="random">
        <route edges="-152811 152386#0 -152831#0 152816#4 152816#5 -152810#2 -152810#1 -152810#0 152775#0 -152381 -152716 -152767#3 -152767#2 -152767#1 -152767#0 -152701#0 152229 152943#0 152943#1 -152814#11 -152814#10 -152814#9 -152814#8 -152812#5 -152812#4 -152812#3 -152812#2 -152812#1 -152812#0 153441#1 153441#2 153441#3"/>
    </vehicle>
    <vehicle id="special_1-1_148" type="special" depart="18684" departLane="best" arrivalPos="random">
        <route edges="152767#0 152767#1 152767#2 152767#3 152716 152381 -152775#0 152810#0 152810#1 152810#2 152787#0 152934 -152789#4 -152789#3 -152789#2 -152789#1 -152789#0 152468 152296 153640 153639 152874#4 152874#5 152874#0 152451"/>
    </vehicle>
    <vehicle id="special_1-3_233" type="special" depart="18734" departLane="best" arrivalPos="random">
        <route edges="152347#0 152347#1 152535#0 152535#1 152535#2 152535#4 152535#6 152654#4 152670#3 152670#4 152282 -152290 -152761 -152291 -152800 -152292 -152794 152293 152385 -152206 152461 152311 152312#2 -152309 152318#1 152318#2 -152308 152281 152530 -152330#5 -152330#4 -152330#3 -152330#2 -152330#1 -152330#0 153637 152405 -153007#6 -153456#6 -153456#5 -153456#4 -153456#3 -153456#2 -153456#1 -153456#0 153451#5 153435#0 153435#1 153435#2 153435#3 152416#1 152413#0 152413#1 152413#2 152413#3 152252 153395 152253 -153436 153436 -152253 -153395 -152252 -152413#3"/>
    </vehicle>
    <vehicle id="special_3-1_225" type="special" depart="18750" departLane="best" arrivalPos="random">
        <route edges="153459#1 153458#1 153005#0 153005#1 152235 153338 153641 152330#0 152330#1 152330#2 152330#3 152330#4 152330#5 152166 152168#0 152168#1 152399#1 152399#2 152901#0 152901#1 152988 152814#0 152814#1 152814#2 152814#3 152814#4 152814#5 152814#6 152814#7 152814#8 152814#9 152814#10 152814#11 152759 152230 152785#0 152819 152944#2 152234 152701#0 152701#1 152701#2 152701#3 152701#4 152701#5 152703 152705#0 152705#1 152175 152678 -152686"/>
    </vehicle>
    <vehicle id="special_1-3_168" type="special" depart="18817" departLane="best" arrivalPos="random">
        <route edges="152988 152814#0 152814#1 152896 -152814#0 152989 -152901#1 -152901#0 152399#3 152399#0 -152168#1 -152168#0 -152166 -152330#5 -152330#4 -152330#3 -152330#2 -152330#1 -153479#11 -153479#9 -153479#8 -153479#7 -153479#6 -153479#5 -153479#3 -153479#2 -153479#1 -153479#0 153476#26 -152303 -153342 -152302 -153477#1 -152903"/>
    </vehicle>
    <vehicle id="special_1-3_229" type="special" depart="18859" departLane="best" arrivalPos="random">
        <route edges="152770 -152650#1 152672#1 152672#2 -152775#0 152810#0 152810#1 152810#2 152820 152960#1 152960#2 152960#3 152960#4 152305 152312#0 152312#1 152312#2 -152309 152318#1 152318#2 -152308 152281 152530 -152330#5 -152330#4 -152330#3 -152330#2 -152330#1 -152330#0 153637 152405 -153007#6 -153456#6 -153456#5 -153456#4 -153456#3 -153456#2 -153456#1 -153456#0 153451#5 153435#0 153435#1 153435#2 153435#3 152416#1 152413#0 152413#1 152413#2 152413#3 152252 153395 152253 -153436"/>
    </vehicle>
    <vehicle id="special_1-1_65" type="special" depart="18869" departLane="best" arrivalPos="random">
        <route edges="152859 152773 152772 -152763 152776 152817#0 152817#1 152817#2 152817#3 152959#5 152779 152818#0 152818#1 152818#2 152818#3 152816#0 152816#1 152816#2 152816#3 152816#4 152816#5 -152810#2 -152810#1 -152810#0 152775#0 -152381 -152716 -152767#3 -152767#2 -152767#1 -152767#0 -152701#0 152229 152943#0 152943#1 -152814#11 -152814#10 -152814#9 -152814#8 -152814#7 -152814#6 -152814#5 -152814#4"/>
    </vehicle>
    <vehicle id="special_1-3_73" type="special" depart="18877" departLane="best" arrivalPos="random">
        <route edges="152663 -152660#1 -152660#0 152677#3 152677#4 152677#5 152650#0 152672#1 152672#2 -152775#0 152810#0 152810#1 152810#2 152820 152960#1 152960#2 152960#3 152960#4 152305 152312#0 152312#1 152312#2 -152309 152318#1 152318#2 152318#3 152139 152137#0 152138 152968 -152270 -152418 -152958 153476#1 153476#2 153476#3 153476#5 153476#6 153476#7 153476#8 153476#9 153476#10 153476#11 153476#12 153476#13 153476#14 153476#15 153476#16 153476#17 153476#18 153476#19 153476#20 153476#22 153476#23 153476#24 153476#25 153476#26 -152303 -153342 -152302 -153477#1 -152903"/>
    </vehicle>
    <vehicle id="special_2-1_191" type="special" depart="18890" departLane="best" arrivalPos="random">
        <route edges="153405#1 153405#2 153405#3 153406#0 153406#1 153406#2 152940 152684 152174#1 -152701#5 -152701#4 -152701#3 -152701#2 -152701#1 -152701#0 152229 152943#0 152793 152785#2 152167 152969#0 152969#1 152969#2 152969#3 -152795#1 152808 152959#3 152959#4 152959#5 152779 152818#0 152818#1 152818#2 152818#3 152389 152468 152296 153640 153639 152874#4 152874#5 152874#0 152874#1 152875#0"/>
    </vehicle>
    <vehicle id="special_2-1_123" type="special" depart="18910" departLane="best" arrivalPos="random">
        <route edges="152649#1 152649#2 152649#3 152649#4 152649#5 153406#0 153406#1 153406#2 152940 152684 152174#1 -152701#5 -152701#4 -152701#3 152780 152767#2 152767#3 152716 152381 -152775#0 152810#0 152810#1 152810#2 152820 152960#1 152960#2 152960#3 152960#4 152960#5 152960#6 152960#7"/>
    </vehicle>
    <vehicle id="special_3-1_135" type="special" depart="18916" departLane="best" arrivalPos="random">
        <route edges="-153457 153452#1 153452#2 153451#1 153451#2 153451#3 153451#4 153451#5 153451#6 153451#7 153433#1 152734#0 -152736#2 -152736#1 -152736#0 153391#0 153391#1 153392#1 153387#1 153387#2 -152628#1 -152628#0 -153384#1 -153384#0 -152177 -152176#2 -152176#1 -152176#0 153383#1 153383#2 153383#3 153383#4 153383#5 -152246 153369#0 153369#1 152245 152565 152307 -153372#4 -153372#3 -153372#2 153480#0 153480#1 153480#2 153480#3 153480#4 153480#5 153480#6 153480#7 152585#1 152350 152582#0 152582#1 -152590#2 -152590#1 -152590#0 153491#0 153491#1 153491#2 -152313 -152592 152592 152313 -153491#2 -153491#1 -153491#0"/>
    </vehicle>
    <vehicle id="special_2-1_74" type="special" depart="18918" departLane="best" arrivalPos="random">
        <route edges="153479#2 153479#3 152913#0 152913#1 152913#2 -152913#2 -152913#1 -152913#0 -153479#3 -153479#2 -153479#1 -153479#0 -153476#25 -153476#24 -153476#23 -153476#22 -153476#20 -153476#19 -153476#18 -153476#17 -153476#16 -153476#15 -153476#14 -153476#13 -153476#12 -153476#11 -153476#10 -153476#9 -153476#8 -153476#7 -153476#6 -153476#5 -153476#3 -153476#2 -153476#1 -153476#0 152418 152270 152419#0 152419#1 152308 152318#3 152318#4 152309 152312#3 -152305 152960#5 152960#6 152766#0 152766#1"/>
    </vehicle>
    <vehicle id="special_1-2_30" type="special" depart="18920" departLane="best" arrivalPos="random">
        <route edges="-153559#2 -153559#1 -153559#0 -152887#1 -152887#0 152898#0 152898#1 152898#2 -152299 152857 152137#3 152137#4 152137#5 152137#6 152137#7 -152139 152318#4 152318#1 152318#2 -152308 152281 152530 -152330#5 -152330#4 152407 -152407 152330#4 152330#5 152166 152168#0 152168#1 152399#1 152399#2 152399#3 -152891#1 -152891#0 152300 -152892#1 -152892#0 -153444#4 -153444#3 -153444#2 -153444#0 153440#1 153440#2 153449#0 153449#1 153449#2 153449#3 153449#4 153449#5 153449#6 153449#7 153449#8 153449#9 153449#10 153449#11 -153449#11 -153449#10"/>
    </vehicle>
    <vehicle id="special_3-1_226" type="special" depart="18935" departLane="best" arrivalPos="random">
        <route edges="153459#1 153458#1 153005#0 153005#1 152235 153338 153641 152330#0 152330#1 152330#2 152330#3 152330#4 152330#5 152166 -153006#3 -153006#2 -153006#1 -153006#0 152899#2 -152870#4 -152832#6 -152832#5 -152832#4 -152832#3 -152832#2 -152832#1 -152832#0 -152987#1 -152987#0 -152795#1 152808"/>
    </vehicle>
    <vehicle id="special_1-2_185" type="special" depart="18941" departLane="best" arrivalPos="random">
        <route edges="152767#0 152767#1 152767#2 152767#3 152939#5 -152702#1 -152702#0 152667#1 152667#2 152667#3 152667#4 152667#5 152667#6 152667#7 152667#8 152667#9 152667#10 152667#11 152605#1 152605#2 152169 152223 152453 152454#1 -152582#4 -152582#3 -152582#2 -152582#1 -152582#0 152576 152219 152346#1 152221 -153480#7 -153480#6 -153480#5 -153480#4 -153480#3 -153480#2 -153480#1 -153480#0 -153372#1 -153372#0 152558#1 152558#2 152558#3 152558#5 152558#6 -153323#4 -153323#3 -153323#2"/>
    </vehicle>
    <vehicle id="special_1-3_131" type="special" depart="19000" departLane="best" arrivalPos="random">
        <route edges="152705#0 152705#1 152174#0 152174#1 -152701#5 -152701#4 -152701#3 -152701#2 -152701#1 -152701#0 152229 152943#0 152943#1 -152814#11 -152814#10 -152814#9 -152814#8 -152814#7 -152814#6 -152814#5 -152814#4 -152814#3 -152814#2 -152814#1 -152814#0 152989 -152901#1 -152901#0 152399#3 152399#0 -152168#1 -152168#0 -152166 -152330#5 -152330#4 -152330#3 -152330#2 -152330#1 -152330#0 153637 153634#1 153636#1 153002#0 153002#1 -153458#1 -153458#0 -153459#0 -152256 153460 -153460 152256 153459#0 153459#1"/>
    </vehicle>
    <vehicle id="special_1-1_223" type="special" depart="19001" departLane="best" arrivalPos="random">
        <route edges="152606#8 152606#9 152513#1 152353#4 152353#1 152353#2 152354#0 152354#1 -152652#0 -152667#10 -152667#9 -152667#8 -152667#7 -152667#6 -152667#5 -152667#4 152714 152174#0 152174#1 -152701#5 -152701#4 -152701#3 -152701#2 -152701#1 -152701#0 152229 152943#0 152793 152785#2 152167 152969#0 152969#1 152969#2 152969#3 152987#0 152987#1 152832#0 152832#1 152832#2 152832#3 152832#4 152832#5 152832#6"/>
    </vehicle>
    <vehicle id="special_1-2_21" type="special" depart="19005" departLane="best" arrivalPos="random">
        <route edges="152534#6 152534#7 -152165#1 -152165#0 153547 152145 -152172 152578#1 -152218 153378#0 153378#1 153378#2 153376 152221 -153480#7 -153480#6 -153480#5 -153480#4 -153480#3 -153480#2 -153480#1 -153480#0 153372#2 153372#3 153372#4 -152307 -152565 -152245 -153369#1 -153369#0 152246 -153383#5 -153383#4 -153383#3 -153383#2 -153383#1 -153386 152176#1 152176#2 152177 153384#0 153384#1 153384#2 152628#1 -153387#2 -153387#1 -153392#1 -153391#1 -153391#0 152736#0 152736#1 152736#2 -152734#0 -153424#0"/>
    </vehicle>
    <vehicle id="special_1-2_277" type="special" depart="19007" departLane="best" arrivalPos="random">
        <route edges="152967 152816#2 152816#3 152816#4 152816#5 -152810#2 -152810#1 -152810#0 152775#0 -152381 -152716 -152767#3 -152767#2 -152767#1 -152767#0 -152701#0 152229 152943#0 152943#1 -152814#11 -152814#10 -152814#9 -152814#8 -152812#5 -152812#4 -152812#3 -152812#2 -152812#1 -152812#0 153441#1 153441#2 153441#3 153440#1 153440#2 153449#0 153449#1 153449#2 153449#3 153449#4 153449#5 153449#6 153449#7 153449#8 153058#0 153058#1 153058#2 153058#3 -153058#3"/>
    </vehicle>
    <vehicle id="special_2-1_96" type="special" depart="19028" departLane="best" arrivalPos="random">
        <route edges="-153052 153007#2 153007#3 153007#4 153007#5 153007#6 152406 153636#1 153002#0 152838 153005#1 152235 153338 153641 152330#0 152330#1 152330#2 152330#3 152330#4 152330#5 152166 -153006#3 -153006#2 -153006#1 -153006#0 -152899#1 -152899#0 152402#0 152402#1 152402#2 152938#0 152938#1 152938#2 152419#1 152308 152318#3 152318#4 152309 152312#3 -152305 -152831#2 -152831#1 -152386#0"/>
    </vehicle>
    <vehicle id="special_3-1_71" type="special" depart="19038" departLane="best" arrivalPos="random">
        <route edges="-153457 153452#1 153452#2 153451#1 153451#2 153451#3 153451#4 153451#5 153451#6 153451#7 153433#1 152734#0 -152736#2 -152736#1 -152736#0 153391#0 153391#1 -153392#0 153327#0 153327#1 153327#2 153327#3 153327#4 153327#5 153327#6 153327#7 153327#8 153327#9 153327#11 153327#12 -153335#7 -153335#6 -153335#5 -153335#4 -153335#3 -153335#2 -153335#1 -153335#0 -153444#0 -153441#3 -153441#2 -153441#1 -153441#0 -153445#1 -153445#0 153003#0 153003#1 153004 -152971#5 153439#0 153439#1 153439#2 152466#1"/>
    </vehicle>
    <vehicle id="special_1-2_140" type="special" depart="19082" departLane="best" arrivalPos="random">
        <route edges="153554#3 -152997 -153413#16 -153413#15 -153413#14 -153413#13 -153413#12 -153413#11 -153413#10 -153413#9 -153413#8 -153413#7 -153413#6 -153413#5 -153413#4 -153413#3 -153413#1 -153413#0 153399#0 153399#1 152933#4 152933#0 -153374#14 -153374#13 -153374#12 -153374#11 -153374#10 -153374#9 -153374#8 -153374#7 -153374#6 -153374#5 -153374#4 -153374#3 -153374#2 -153374#1 -153023#3"/>
    </vehicle>
    <vehicle id="special_2-1_127" type="special" depart="19092" departLane="best" arrivalPos="random">
        <route edges="153413#8 153413#9 153413#10 153413#11 153413#12 153413#13 153413#14 153413#15 153413#16 152997 152999 152706#0 152706#1 152706#2 152706#3 -152701#2 -152701#1 -152701#0 152229 152943#0 152943#1 -152814#11 -152945#2 -152945#1 -152945#0 153552#1 153552#2 152870#0"/>
    </vehicle>
    <vehicle id="special_1-3_238" type="special" depart="19124" departLane="best" arrivalPos="random">
        <route edges="152784#0 152784#1 -152386#2 -152386#1 152831#1 152831#2 152305 152312#0 152312#1 152312#2 -152309 152318#1 152318#2 -152308 152281 152530 -152330#5 -152330#4 -152330#3 -152330#2 -152330#1 -152330#0 153637 153634#1 153636#1 153002#0 153002#1 -153458#1 -153458#0"/>
    </vehicle>
    <vehicle id="special_1-3_232" type="special" depart="19129" departLane="best" arrivalPos="random">