<?xml version="1.0" encoding="UTF-8"?>

<!-- 
    Monaco SUMO Traffic (MoST) Scenario
    Copyright (C) 2018 
    Lara CODECA

    This program is free software: you can redistribute it and/or modify
    it under the terms of the GNU General Public License as published by
    the Free Software Foundation, either version 3 of the License, or
    (at your option) any later version.

    This program is distributed in the hope that it will be useful,
    but WITHOUT ANY WARRANTY; without even the implied warranty of
    MERCHANTABILITY or FITNESS FOR A PARTICULAR PURPOSE.  See the
    GNU General Public License for more details.

    You should have received a copy of the GNU General Public License
    along with this program.  If not, see <http://www.gnu.org/licenses/>.
-->

<routes xmlns:xsi="http://www.w3.org/2001/XMLSchema-instance" xsi:noNamespaceSchemaLocation="http://sumo.dlr.de/xsd/routes_file.xsd">
    <vehicle id="passenger_1_293" type="passenger3" depart="18027.00" departLane="best">
        <route edges="296 312 153 313#0 313#1 193 204#3 204#4 194 198#3 -188 884#5 884#6 884#7 884#8 -744#1 -744#0 -1495#3 -1495#2 -1495#1 -1495#0 -893#1 -746#1 -746#0 1499#0 1499#1 -700 -720 -733#9 -731#5 -731#4 -731#3 -731#2 -731#1"/>
    </vehicle>
    <vehicle id="passenger_3_1085" type="passenger2b" depart="18045.00" departLane="best">
        <route edges="-448 456 -918 -1437 -1298#2 -1295#2 -1295#1 -1295#0 -1300#1 -1300#0 856#3 856#0 -468#6 -468#5 -468#4 -468#3 -468#2 -468#1 -468#0 1313#1 1423#0 1423#1 1423#2 1423#3 1423#4 1423#5 1423#6 1423#7 497#1 236 494#0 494#1 494#2 494#3 494#4 350#2 350#3 350#4 -349 -95#0 -520#2 -520#1 -520#0 -584#11 -584#10 -584#9 -584#8 -584#7 -584#6 -584#5 -584#4 -584#3 -584#2 -584#1 620#0 620#1 -863#5 634"/>
    </vehicle>
    <vehicle id="passenger_3_991" type="passenger1" depart="18058.00" departLane="best">
        <route edges="1278 -1277 -1282#0 916#1 456 -918 -1437 -1298#2 -1295#2 -1295#1 -1295#0 -1300#1 -1300#0 856#3 856#0 -468#6 -468#5 -468#4 -468#3 -468#2 -468#1 -468#0 1313#1 1423#0 1423#1 1423#2 1423#3 1423#4 1423#5 1423#6 1423#7 497#1 236 494#0 494#1 494#2 494#3 494#4 350#2 350#3 521#0 -525#1 532 521#2 521#3 521#4 521#5 521#6 521#8 521#9 521#10 521#11 521#12 416#1 240#4 240#1 240#2 240#3"/>
    </vehicle>
    <vehicle id="passenger_3_625" type="passenger2a" depart="18075.00" departLane="best">
        <route edges="932#0 932#1 1597 216#0 216#1 216#2 216#3 216#4 216#5 216#6 216#7 216#8 216#9 216#10 291#1 291#2 823#0 823#1 913 733#0 733#1 733#2 733#3 733#4 733#5 733#6 733#7 733#8 733#9 733#10 733#11 733#12 733#13 677 738 868#2 619#0 619#1 619#2 619#3 619#4 619#5 621 622 574#1 574#2 -595#5 -595#4 -595#3 -595#2 -595#1 -595#0 588 571#1"/>
    </vehicle>
    <vehicle id="passenger_2_709" type="passenger1" depart="18135.00" departLane="best">
        <route edges="1354#5 1354#6 1354#7 1354#8 1354#9 1354#10 1354#11 1354#12 1354#13 1354#14 1354#15 1354#16 1354#17 923 925 624#0 624#2 624#3 698 685#2 685#3 863#5 -620#1"/>
    </vehicle>
    <vehicle id="passenger_3_1872" type="passenger2b" depart="18207.00" departLane="best">
        <route edges="825 1419#1 185 1276 186 -1418#27 -1418#26 -1418#25 -1418#24 -1418#23 -1418#21 -1418#20 -1418#19 -1418#18 -1418#17 -1418#16 -1418#13 -1418#12 -1418#11 -1418#10 -1418#9 -1418#8 -1418#7 -1418#6 -1418#5 -1418#3 -1418#2 -1418#1 -1418#0 312 153 313#0 313#1 193 204#3 204#4 194 198#3 198#0 154 317#0 317#1 71#0 -274#0 862#3 862#4 862#0 862#1 862#2 274#0 -71#0"/>
    </vehicle>
    <vehicle id="passenger_2_1235" type="passenger1" depart="18228.00" departLane="best">
        <route edges="-905 -297#2 -297#1 -297#0 216#3 216#4 216#5 216#6 216#7 216#8 -933#3 -933#2 -933#1 -933#0 821#2 -790#5 -751#6 -751#5 -751#4 -751#3 -751#2 -751#1 -751#0 -912#1 -912#0 -714#1 727"/>
    </vehicle>
    <vehicle id="passenger_3_1016" type="passenger2a" depart="18253.00" departLane="best">
        <route edges="-1521 668#5 668#6 668#7 668#8 -307#0 306 338#1 -1377#3 -1377#2 -1377#1 -1377#0 1393#6 1393#7 1375#1 1366#1 652#0 -654#2 -654#1 -654#0 1332#0 1332#1 1512#0 1512#1 1261#0 1261#1 1261#2 1261#3 1261#4 1261#5 1261#6 1261#7 1261#8 1261#9 1261#10 1261#11 1261#12 -1269#7 -1269#6 -1269#5 -1269#4 -1269#3 -1269#2 -1269#1 -1269#0 1386#1 1386#2 1386#3 1386#4 755#0 755#1 755#2 755#3 755#4 755#5 755#6 755#7 755#8 733#3"/>
    </vehicle>
    <vehicle id="passenger_3_193" type="passenger2b" depart="18291.00" departLane="best">
        <route edges="-448 456 -918 -1437 -1298#2 -1295#2 -1295#1 -1295#0 -1300#1 -1300#0 856#3 856#0 -468#6 -468#5 -468#4 -468#3 -468#2 -468#1 -468#0 1313#1 1423#0 1423#1 1423#2 1423#3 1423#4 1423#5 1423#6 1423#7 497#1 236 494#0 494#1 494#2 494#3 494#4 350#2 350#3 350#4 -349 -95#0 -520#2 -520#1 -520#0 -584#11 -584#10 -584#9 -584#8 -584#7 -584#6 -584#5 -584#4 632#0 632#1 632#2 632#3 -619#5 -619#4 -619#3 -619#2 -619#1 685#0"/>
    </vehicle>
    <vehicle id="passenger_2_1374" type="passenger2b" depart="18361.00" departLane="best">
        <route edges="-474 1423#3 1423#4 1423#5 1423#6 1423#7 497#1 236 494#0 494#1 494#2 494#3 494#4 350#2 350#3 350#4 -349 -95#0 -520#2 -520#1 -520#0"/>
        <stop parkingArea="152642" duration="43200.00"/>
    </vehicle>
    <vehicle id="passenger_3_680" type="passenger2a" depart="18435.00" departLane="best">
        <route edges="485 -1331#0 -902 -540#1 -540#0 -1366#2 652#0 -654#2 -654#1 -654#0 1332#0 1332#1 1512#0 1512#1 1261#0 1261#1 1261#2 1261#3 1261#4 1261#5 1261#6 1261#7 1261#8 1261#9 1261#10 1261#11 1261#12 -1269#7 -1269#6 -1269#5 -1269#4 -1269#3 -1269#2 -1269#1 -1269#0 -1386#0 -1383#3 -1383#2 -1383#1 1385 731#1 731#2 731#3 731#4 731#5 733#9 720 700 1499#2 1499#3 746#0 746#1 893#1 1495#0 1495#1 1495#2 1495#3 744#0 744#1 884#11 883#1 883#2 883#3 883#4 697 737#0 737#1 737#2 737#3 737#4 281 707#0 707#1 747 716#1"/>
    </vehicle>
    <vehicle id="passenger_3_1554" type="passenger2a" depart="18497.00" departLane="best">
        <route edges="300 1592#1 929#0 757 932#1 1597 216#0 216#1 216#2 216#3 216#4 216#5 216#6 216#7 216#8 216#9 216#10 291#1 291#2 823#0 823#1 913 733#0 733#1 733#2 733#3 733#4 733#5 733#6 733#7 733#8 733#9 733#10 733#11 733#12 733#13 677 738 868#2 619#0 619#1 619#2 619#3 619#4 619#5 621 622 584#1 584#2 584#3 584#4 584#5 584#6 584#7 584#8 584#9 584#10 584#11 584#12 520#1 520#2 520#4 95#1 350#1 350#2 530#0 530#1 530#2"/>
    </vehicle>
    <vehicle id="passenger_1_111" type="passenger3" depart="18542.00" departLane="best">
        <route edges="782 781 -779 -782 -780 694 736#0 736#1 736#2 736#3 883#4 697 737#0 737#1 737#2 737#3 737#4 735#0 735#1 735#2 735#3 735#4 735#5 862#0 862#1 -729#2 -729#1 -723 863#1 863#2 455 -685#2 -698 -624#3 -624#2 -624#0 -925 -1502#3 -1506"/>
    </vehicle>
    <vehicle id="passenger_2_98" type="passenger2b" depart="18571.00" departLane="best">
        <route edges="262#0 262#1 262#2 759 1369#8 1369#9 1369#10 1369#11 -830#5 -830#4 -830#3 -830#2 -830#1 -830#0 1375#1 1366#1 652#0 -654#2 -654#1 -654#0 1332#0 1332#1 1512#0 1512#1 1261#0 1261#1 1261#2 1261#3 1261#4 1261#5 1261#6 1261#7 1261#8 1261#9 1261#10 1261#11 1261#12 -1269#7 -1269#6 -1269#5 -1269#4 -1269#3 -1269#2 -1269#1 -1269#0 -1386#0 -1383#3 -1383#2 -1383#1 1385 731#1 731#2 731#3 731#4 731#5 733#9 720 700 1499#2 1499#3 746#0 746#1 893#1 893#2 893#3 893#4 893#5 -714#1 743#0 743#1 6#7 6#0 6#1 6#2 -776 182"/>
    </vehicle>
    <vehicle id="passenger_3_48" type="passenger1" depart="18608.00" departLane="best">
        <route edges="1523#0 -1532 -1534#1 -1534#0 -1535 -1523#0 303#1 303#2 303#3 216#0 216#1 216#2 216#3 216#4 216#5 216#6 216#7 216#8 -933#3 -933#2 -933#1 -933#0 -821#1 -821#0 294#0 294#1 294#2 861#0 861#1 861#2 313#1 193 204#3 8 6#0 6#1 6#2 6#3 6#4 6#5 740#0 740#2 883#3 883#4 697 737#0 737#1 737#2 737#3 280#0 280#1 695 271 208#3 689"/>
    </vehicle>
    <vehicle id="passenger_2_803" type="passenger3" depart="18661.00" departLane="best">
        <route edges="-951#3 -951#2 511 239#2 -444#0 239#1 -511 951#2 951#3 1315#1 1315#2 1315#3 1315#4 1315#5 1315#6 1315#7 1315#8 1315#9 1315#10 1315#11 1315#12 1315#13 1315#14 855#1 855#2 855#3 -1340#1 -1340#0 565#0 565#1 565#2 565#3 565#4 565#5 1347#0 1347#1 1347#2 864 602 632#3 -619#5 -619#4 -619#3 -619#2 -619#1 -619#0 102 867#0 867#1 -733#13 -869#2 -869#1 -869#0 1499#1 1499#2 790#0 790#1 790#2 790#3 790#4 -751#6 -751#5 -751#4 -751#3 -751#2"/>
    </vehicle>
    <vehicle id="passenger_2_1142" type="passenger3" depart="18680.00" departLane="best">
        <route edges="937#1 834#0 834#1 834#2 834#3 834#4 834#5 834#6 834#8 907#1 907#2 907#3 -822#1 -807#2 -807#1 -807#0 820#0 820#1 820#2 -182 776 6#3 6#4 6#5 740#0 740#2 883#3 -736#3 -736#2 -736#1 -736#0 -694 681 -691 -778 -796 -808 -407 871 785"/>
    </vehicle>
    <vehicle id="passenger_1_265" type="passenger1" depart="18799.00" departLane="best">
        <route edges="-869#0 1499#1 -700 -720 -733#9 -731#5 -731#4 -731#3 -731#2 -731#1 -731#0 1383#1 1383#2 1383#3 -1382#0 1269#0 1269#1"/>
    </vehicle>
    <vehicle id="passenger_2_174" type="passenger1" depart="18799.00" departLane="best">
        <route edges="-489#2 -894#1 -894#0 489#1 489#2 489#3 489#4 14 -1316#0 231#0 231#1 -491#1 -491#0 -499#2 -499#1 -499#0 522#1 250#3 250#0 250#1 -586#1 -586#0 -98 -169 -173 -679 -174 -719 -175 -713 176 277 -71#0 361#0 361#1 197 198#2 -194 204#1 203 -820#2 -820#1 1509#3 -798 803#1 803#2"/>
    </vehicle>
    <vehicle id="passenger_2_735" type="passenger1" depart="18816.00" departLane="best">
        <route edges="1283#3 -1288#1 -1288#0 121 1292 1301#0 1301#1 1260#1 1260#2 1260#3 1260#4 1313#1 1423#0 1423#1 1423#2 1423#3 1423#4 1423#5 1423#6 1423#7 497#1 236 494#0 494#1 494#2 494#3 494#4 350#2 350#3 350#4 -349 -95#0 -520#2 -520#1 -520#0 -584#11 -584#10 -570 -591 -576 -568"/>
        <stop parkingArea="152593" duration="43200.00"/>
    </vehicle>
    <vehicle id="passenger_2_183" type="passenger4" depart="18893.00" departLane="best">
        <route edges="1354#15 1354#16 1354#17 923 925 624#0 624#2 624#3 -619#2 -619#1 -619#0 102 867#0 711 703#2 893#0 893#1 1495#0 1495#1 1495#2 1495#3 744#0 744#1 884#11 883#1 883#2 883#3 883#4 697 737#0 737#1 737#2 737#3 737#4 281 707#0 707#1 707#2"/>
    </vehicle>
    <vehicle id="passenger_2_75" type="passenger1" depart="18935.00" departLane="best">
        <route edges="-775 -833#0 815#1 -793#0 908 907#3 907#4 898 -816#1 -1418#0 312 153 313#0 313#1 164 435 216#8 216#9 216#10 291#1 291#2 291#3 -811#1 -811#0 183 -812#1 -812#0 -1386#4 -1386#3 -1386#2 -1386#1 1269#0 1269#1 1269#2 1269#3 1269#4 1269#5 1269#6 1269#7 -1261#12 -1261#11 -1261#10 -1261#9 -966 1261#11 1261#12 -1269#7 -1269#6 -1269#5 -1269#4 -1269#3 -1269#2"/>
    </vehicle>
    <vehicle id="passenger_3_892" type="passenger2b" depart="18942.00" departLane="best">
        <route edges="850#1 850#2 850#3 442 338#1 -1377#3 -1377#2 -1377#1 -1377#0 1393#6 1393#7 1375#1 1366#1 652#0 -654#2 -654#1 -654#0 1332#0 1332#1 1512#0 1512#1 1261#0 1261#1 1261#2 1261#3 1261#4 1261#5 1261#6 1261#7 1261#8 1261#9 1261#10 1261#11 1261#12 -1269#7 -1269#6 -1269#5 -1269#4 -1269#3 -1269#2 -1269#1 -1269#0 -1386#0 -1383#3 -1383#2 -1383#1 1385 731#1 731#2 731#3 731#4 731#5 733#9 720 700 1499#2 1499#3 746#0 746#1 893#1 1495#0 1495#1 1495#2 -715#1 -715#0"/>
    </vehicle>
    <vehicle id="passenger_2_784" type="passenger1" depart="18985.00" departLane="best">
        <route edges="-1418#18 -1418#17 -1418#16 -1418#13 -1418#12 -1418#11 -1418#10 -1418#9 -1418#8 -1418#7 -1418#6 -1418#5 -1418#3 -1418#2 -1418#1 -1418#0 312 153 313#0 313#1 193 204#3 204#4 194 198#3 198#0 154 317#0 317#1 71#0 -274#0 862#3 862#4 862#0 862#1 -729#2 -729#1 -729#0 693#0 693#1 693#2 693#3 693#4 693#5 -620#1 -620#0 584#1 584#2 584#3 584#4 584#5 584#6 584#7 584#8 584#9 584#10 584#11 584#12 520#1 520#2 520#4 95#1 350#1 350#2 530#0 -526#1"/>
    </vehicle>
    <vehicle id="passenger_3_1286" type="passenger1" depart="19020.00" departLane="best">
        <route edges="-1430 -1288#1 -1288#0 121 1292 1301#0 1301#1 1260#1 1260#2 1260#3 1260#4 1313#1 1423#0 1423#1 1423#2 1423#3 1423#4 1423#5 1423#6 1423#7 497#1 236 494#0 494#1 494#2 494#3 494#4 350#2 350#3 350#4 -349 -95#0 -520#2 -520#1 -520#0 -584#11 -584#10 -584#9 -584#8 -584#7 -584#6 -584#5 -584#4 632#0 632#1 632#2 632#3 -619#5 -619#4 -619#3 -619#2 -619#1 -619#0 102 867#0 867#1 -733#13 -733#12 -733#11 -733#10 -733#9 -733#8 -733#7 -733#6 -733#5 -733#4 -733#3 -733#2 -733#1 -733#0 914 -823#1"/>
    </vehicle>
    <vehicle id="passenger_3_677" type="passenger2a" depart="19090.00" departLane="best">
        <route edges="825 1419#1 185 1276 186 -1418#27 -1418#26 -1418#25 -1418#24 -1418#23 -1418#21 -1418#20 -1418#19 -1418#18 -1418#17 -1418#16 -1418#13 -1418#12 -1418#11 -1418#10 -1418#9 -1418#8 -1418#7 -1418#6 -1418#5 -1418#3 -1418#2 -1418#1 -1418#0 312 153 313#0 313#1 193 204#3 204#4 194 198#3 198#0 154 317#0 317#1 71#0 71#1 -176 713 175 719 174 679 173 170 571#1 571#2 439#0 439#2 439#4 439#6 439#7 439#9 359#3 359#4 359#5 237#0 237#1 -353#2 -353#1"/>
    </vehicle>
    <vehicle id="passenger_2_1459" type="passenger4" depart="19111.00" departLane="best">
        <route edges="368#0 368#1 368#2 368#3 619#0 619#1 619#2 -624#3 -624#2 -624#0 924 627#0 611#0 -394#5"/>
    </vehicle>
    <vehicle id="passenger_3_1339" type="passenger1" depart="19140.00" departLane="best">
        <route edges="210 850#3 850#4 305 436 214#1 171 774 286 1597 216#0 216#1 216#2 216#3 216#4 216#5 216#6 216#7 216#8 -933#3 -933#2 -933#1 -933#0 -821#1 -821#0 294#0 294#1 294#2 861#0 861#1 861#2 313#1 193 204#3 8 6#0 6#1 6#2 6#3 6#4 6#5 740#0 740#2 883#3 883#4 697 737#0 737#1 737#2 737#3 737#4 281 371"/>
    </vehicle>
    <vehicle id="passenger_2_1170" type="passenger1" depart="19171.00" departLane="best">
        <route edges="1309#1 1309#2 -480 -1313#3 -1313#2 1423#0 1423#1 1423#2 1423#3 1423#4 1423#5 1423#6 1423#7 497#1 236 494#0 494#1 -502#2 -502#1 -502#0 -1321#5 -1321#4 -865#4 -865#3 -865#2 -865#1 -865#0 860#0"/>
    </vehicle>
    <vehicle id="passenger_3_776" type="passenger1" depart="19211.00" departLane="best">
        <route edges="420 155 422 431 469 415#3 415#4 1322#0 1322#1 1322#2 1322#3 1322#4 1322#5 1322#6 1322#7 1324#2 1324#3 1324#4 1310#0 1310#1 190#0 190#1 -1313#4 -1313#3 -1313#2 1423#0 1423#1 1423#2 1423#3 1423#4 1423#5 1423#6 1423#7 87 -1319#2 -1319#1 -1319#0 -490#0 1316#0 1316#1 1316#2 354#0 354#1 354#2 359#1 359#2 359#3 359#4 -233#1 360 -358#0"/>
    </vehicle>
    <vehicle id="passenger_3_734" type="passenger1" depart="19307.00" departLane="best">
        <route edges="1398#7 935#6 300 1592#1 929#0 757 932#1 1597 216#0 216#1 216#2 216#3 216#4 216#5 216#6 216#7 216#8 -933#3 -933#2 -933#1 -933#0 -821#1 -821#0 294#0 294#1 294#2 861#0 861#1 861#2 313#1 193"/>
    </vehicle>
    <vehicle id="passenger_3_326" type="passenger3" depart="19388.00" departLane="best">
        <route edges="-1287 916#1 456 -918 -1437 -1298#2 -1295#2 -1295#1 -1295#0 -1300#1 -1300#0 856#3 856#0 -468#6 -468#5 -468#4 -468#3 -468#2 -468#1 -468#0 1313#1 1423#0 1423#1 1423#2 1423#3 1423#4 1423#5 1423#6 1423#7 497#1 236 494#0 494#1 494#2 494#3 494#4 350#2 350#3 350#4 -349 -95#0 -520#2 -520#1 -520#0 -584#11 -584#10 -584#9 -584#8 -584#7 -584#6 -584#5 -584#4 632#0 632#1 632#2 632#3 -619#5 -619#4 -619#3 -619#2 -619#1 -619#0 102 867#0 711 703#2 893#0 893#1 893#2 893#3 893#4 893#5 912#0 912#1 751#0 751#1 751#2 751#3 751#4 751#5"/>
    </vehicle>
    <vehicle id="passenger_3_1050" type="passenger2b" depart="19461.00" departLane="best">
        <route edges="991#0 483#0 483#1 483#2 -902 -540#1 -540#0 -1366#2 652#0 -654#2 -654#1 -654#0 1332#0 1332#1 1512#0 1512#1 1261#0 1261#1 1261#2 1261#3 1261#4 1261#5 1261#6 1261#7 1261#8 1261#9 1261#10 1261#11 1261#12 -1269#7 -1269#6 -1269#5 -1269#4 -1269#3 -1269#2 -1269#1 -1269#0 -1386#0 -1383#3 -1383#2 -1383#1 1385 731#1 731#2 731#3 731#4 -1379 1380"/>
    </vehicle>
    <vehicle id="passenger_3_127" type="passenger2a" depart="19475.00" departLane="best">
        <route edges="916#1 456 -918 -1437 -1298#2 -1295#2 -1295#1 -1295#0 -1300#1 -1300#0 856#3 856#0 -468#6 -468#5 -468#4 -468#3 -468#2 -468#1 -468#0 1313#1 1423#0 1423#1 1423#2 1423#3 1423#4 1423#5 1423#6 1423#7 497#1 236 494#0 494#1 494#2 494#3 494#4 350#2 350#3 350#4 -349 -95#0 -520#2 -520#1 -520#0 -584#11 -584#10 -584#9 -584#8 -584#7 -584#6 -584#5 -584#4 632#0 632#1 632#2 632#3 -619#5 -619#4 -619#3 -624#3 -624#2"/>
    </vehicle>
    <vehicle id="passenger_2_777" type="passenger2b" depart="19480.00" departLane="best">
        <route edges="-1422#1 -1422#0 -1418#26 -1418#25 -1418#24 -1418#23 -1418#21 -1418#20 -1418#19 -1418#18 -1418#17 -1418#16 -1418#13 -1418#12 -1418#11 -1418#10 -1418#9 -1418#8 -1418#7 -1418#6 -1418#5 -1418#3 -1418#2 -1418#1 -1418#0 312 153 313#0 313#1 193 204#3 204#4 194 198#3 198#0 154 317#0 317#1 71#0 -274#0 862#3 862#4 862#0 862#1 -729#2 -729#1 -723 863#1 863#2 455 -685#2 -698 -624#3 -624#2 -624#0 -925 -923 -1354#17 -1354#16 -1354#15 -1354#14 -1354#13"/>
    </vehicle>
    <vehicle id="passenger_2_915" type="passenger4" depart="19480.00" departLane="best">
        <route edges="-824#1 -824#0 294#1 294#2 294#3 821#0 821#1 821#2 -790#5 -790#4 -790#3 -790#2 -790#1 -790#0 1499#3 1499#0 869#0 869#1 869#2 733#13 677 738 868#2 619#0 619#1 619#2 -624#3 -624#2 -624#0 -925 -923 -1354#17 -1354#16 -1354#15 -1354#14 -1354#13 -1354#12 -1354#11 -1354#10 -1354#9 -1354#8"/>
    </vehicle>
    <vehicle id="passenger_2_361" type="passenger4" depart="19491.00" departLane="best">
        <route edges="-1437 -1298#2 -1295#2 -1295#1 -1295#0 -1300#1 -1300#0 856#3 856#0 -468#6 -468#5 -468#4 -468#3 -468#2 -468#1 -468#0 1313#1 1423#0 1423#1 1423#2 1423#3 1423#4 1423#5 1423#6 1423#7 497#1 236 494#0 494#1 494#2 494#3 494#4 350#2 350#3 350#4 -349 -95#0 -520#2 -520#1 -520#0 -584#11 -584#10 -584#9 -584#8 -584#7 -584#6 -584#5 -584#4 -584#3 -584#2 -584#1 620#0 620#1 -693#5 -693#4 -693#3 -693#2 -693#1 -693#0 729#0 729#1 729#2 862#2 862#3 739 884#1 884#2 884#3 884#4 188 198#0 198#1 198#2 -194 204#1 204#2 204#3 8 6#0 7 892 -153"/>
    </vehicle>
    <vehicle id="passenger_3_433" type="passenger1" depart="19494.00" departLane="best">
        <route edges="668#1 668#2 668#3 668#4 668#5 668#6 668#7 668#8 -307#0 306 338#1 -1377#3 -1377#2 -1377#1 -1377#0 1393#6 1393#7 1375#1 1366#1 652#0 -654#2 -654#1 -654#0 1332#0 1332#1 1512#0 1512#1 1512#2 1333 1328#1 1328#2 -544#1 -544#0 -1325#5 -1325#4 -1325#3 -1325#2 -1325#1 -1325#0 -1324#0 -1326#0 -1353#5 -1263#6 -1263#5 -1263#4 -1265#11 -1265#10 -1265#9 -1265#8 -1265#7 -1265#6 -1265#5 -1265#4 -1265#2 -1265#1 -1265#0 -1356#2 -1356#0 1354#15 1354#16 1354#17 923 925 924 627#0 611#0 -394#5 614 -603#2 -603#1"/>
    </vehicle>
    <vehicle id="passenger_2_1409" type="passenger2a" depart="19519.00" departLane="best">
        <route edges="1324#4 1310#0 476#0 476#1 1315#1 1315#2 1315#3 1315#4 1315#5 1315#6 1315#7 1315#8 1315#9 1315#10 1315#11 1315#12 1315#13 1315#14 855#1 855#2 855#3 -1340#1 -1340#0 565#0 565#1 565#2 565#3 565#4 565#5 1347#0 1347#1 1347#2 864 602 632#3 -619#5 -619#4 -619#3 -619#2 -619#1 -619#0 102 867#0 867#1 -733#13 -733#12 -733#11 -733#10 -733#9 -733#8 -733#7 -733#6 -733#5 -733#4 -733#3 -755#8 -755#7 -749#2 -749#1 -749#0"/>
    </vehicle>
    <vehicle id="passenger_3_262" type="passenger2a" depart="19637.00" departLane="best">
        <route edges="451 456 -918 -1437 -1298#2 -1295#2 -1295#1 -1295#0 -1300#1 -1300#0 856#3 856#0 -468#6 -468#5 -468#4 -468#3 -468#2 -468#1 -468#0 1313#1 1423#0 1423#1 1423#2 1423#3 1423#4 1423#5 1423#6 1423#7 497#1 236 494#0 494#1 494#2 494#3 494#4 350#2 350#3 350#4 -349 -95#0 -520#2 -520#1 -520#0 -584#11 -584#10 -584#9 -584#8 -584#7 -584#6 -584#5 -584#4 632#0 632#1 632#2 632#3 -619#5 -619#4 -619#3 -624#3 -624#2 -624#0 -925 -1502#3 -1502#2 -1502#1 -1502#0 1345#1 1345#3 1345#4 1345#5 1345#6 1345#7 1345#8 1387#0 1387#1 1383#0 1383#1 1383#2 1383#3 -1382#0 1269#0 1269#1 1269#2 1269#3"/>
    </vehicle>
    <vehicle id="passenger_2_810" type="passenger1" depart="19669.00" departLane="best">
        <route edges="1397#1 -826#0 303#2 303#3 216#0 216#1 216#2 216#3 216#4 216#5 216#6 216#7 216#8 216#9 216#10 291#1 291#2 823#0 823#1 913 733#0 733#1 733#2 733#3 733#4 733#5 733#6 733#7 733#8 733#9 733#10 733#11 733#12 733#13 677 738 868#2 619#0 619#1 619#2 619#3 619#4 619#5 621 623#0 623#1 632#2 632#3 -619#5"/>
    </vehicle>
    <vehicle id="passenger_3_341" type="passenger1" depart="19692.00" departLane="best">
        <route edges="-1277 -1282#0 916#1 456 -918 -1437 -1298#2 -1295#2 -1295#1 -1295#0 -1300#1 -1300#0 856#3 856#0 856#1 -1257#4 -1257#3 -1257#2 -1257#1 -1257#0 -1304#3 470 -493#4 -493#3 -493#2 -493#1 -493#0 231#1 -491#1 -491#0 -499#2 -499#1 -499#0 522#1 250#3 250#0 250#1 -586#1 -586#0 -98 -169 -173 -679 -174 -719 -175 -713 176 277 -274#0"/>
    </vehicle>
    <vehicle id="passenger_1_270" type="passenger2b" depart="19798.00" departLane="best">
        <route edges="-696 -1495#1 -1495#0 -893#1 -893#0 868#0 868#1 868#2 619#0 619#1 619#2 619#3 619#4 619#5 621 623#0 623#1 623#2 596 447 563#0 564#0 564#1 564#2 564#3 564#4 564#5 564#6 240#2 240#3"/>
    </vehicle>
    <vehicle id="passenger_1_206" type="passenger1" depart="19849.00" departLane="best">
        <route edges="494#3 494#4 350#2 350#3 521#0 -525#1 532 521#2 521#3 521#4 521#5 521#6 521#8 521#9 521#10 521#11 521#12 416#1 240#4 240#1 240#2 240#3"/>
    </vehicle>
    <vehicle id="passenger_2_1213" type="passenger1" depart="19858.00" departLane="best">
        <route edges="-467#1 -467#0 1504 -367#0 894#1 489#2 489#3 489#4 14 1316#1 1316#2 354#0 354#1 354#2 359#1 440#0 440#2 516 517 439#6 524"/>
    </vehicle>
    <vehicle id="passenger_2_858" type="passenger2a" depart="19913.00" departLane="best">
        <route edges="895#5 732 720 700 1499#2 1499#3 746#0 746#1 893#1 893#2 893#3 893#4 893#5 -714#1 743#0 743#1 6#7 6#0 6#1 6#2 -776 182 -820#2 -820#1 1509#3 -798 -803#0"/>
    </vehicle>
    <vehicle id="passenger_2_208" type="passenger4" depart="19937.00" departLane="best">
        <route edges="-1369#11 -1266#2 -927 -655#0 -18 -1425#0 -830#1 -830#0 1375#1 1366#1 652#0 -654#2 -654#1 -654#0 1332#0 1332#1 1512#0 1512#1 1512#2 1333 1328#1 1328#2 -544#1 -544#0 -1325#5 -1325#4 -1325#3 -1325#2 -1325#1 -1325#0 1324#1 1324#2 1324#3 1324#4 1310#0 1310#1 190#0 190#1 -1313#4 -1313#3 -1313#2 1423#0 1423#1 1423#2 1423#3 1423#4 1423#5 1423#6 1423#7 497#1 236 494#0 494#1"/>
    </vehicle>
    <vehicle id="passenger_2_205" type="passenger1" depart="19985.00" departLane="best">
        <route edges="1407#3 1407#4 1404#2 1404#3 1404#4 1404#5 -1418#11 -1418#10 -1418#9 -1418#8 -1418#7 -1418#6 -1418#5 -1418#3 -1418#2 -1418#1 -1418#0 312 153 313#0 313#1 193 204#3 204#4 194 198#3 198#0 154 317#0 317#1 71#0 71#1 -176 713 175 719 174 679 173 170 571#1 571#2 439#0 439#2 439#4 439#6 439#7 439#9 359#3"/>
    </vehicle>
    <vehicle id="passenger_2_375" type="passenger1" depart="20015.00" departLane="best">
        <route edges="-1382#4 -1382#3 -1382#2 -1382#1 -1383#3 -1383#2 -1383#1 1385 731#1 731#2 731#3 731#4 731#5 733#9 720 700 1499#2 1499#3 746#0 746#1 893#1 1495#0 1495#1 1495#2 1495#3 744#0 744#1 884#11 883#1 883#2 883#3 -736#3 -736#2 -736#1 -736#0 -694 681 678 718 722 -725 -706 -788"/>
    </vehicle>
    <vehicle id="passenger_1_186" type="passenger1" depart="20047.00" departLane="best">
        <route edges="-865#4 -865#3 -865#2 -865#1 -865#0 889#0 889#1 -530#1 -530#0 350#3 521#0 -525#1 532 -521#1 -521#0"/>
    </vehicle>
    <vehicle id="passenger_2_1155" type="passenger1" depart="20094.00" departLane="best">
        <route edges="1599 1418#5 1418#6 1418#7 1418#8 1418#9 936#0 936#1 936#2 936#3 936#4 936#5 936#6 936#7 294#2 294#3 294#0"/>
    </vehicle>
    <vehicle id="passenger_2_574" type="passenger2a" depart="20097.00" departLane="best">
        <route edges="-826#1 -826#0 303#2 303#3 216#0 216#1 216#2 216#3 216#4 216#5 216#6 216#7 216#8 216#9 216#10 291#1 291#2 823#0 823#1 913 733#0 733#1 733#2 733#3 733#4 733#5 733#6 733#7 733#8 733#9 733#10 733#11 733#12 733#13 677 738 868#2 619#0 619#1 619#2 619#3 619#4 619#5 621 622 574#1 574#2 -595#5 585#0 585#1 -581#6 -581#5 -581#4 -581#3 -581#2 -581#1 -581#0"/>
    </vehicle>
    <vehicle id="passenger_3_1784" type="passenger1" depart="20120.00" departLane="best">
        <route edges="-1277 -1282#0 916#1 456 -918 -1437 -1298#2 -1295#2 -1295#1 -1295#0 -1300#1 -1300#0 856#3 856#0 -468#6 -468#5 -468#4 -468#3 -468#2 -468#1 -468#0 1313#1 1423#0 1423#1 1423#2 1423#3 1423#4 1423#5 1423#6 1423#7 497#1 236 494#0 494#1 494#2 494#3 494#4 350#2 350#3 350#4 -349 -95#0 -520#2 -520#1 -520#0 -584#11 -584#10 -584#9 -584#8 -584#7 -584#6 -584#5 -584#4 -584#3 -584#2 -584#1 620#0 620#1 -693#5 -693#4 -693#3 -693#2 -693#1 -693#0 729#0 729#1 729#2 862#2 862#3 739 884#1 884#2 884#3 884#4 188 198#0 198#1 198#2 -194 204#1 203 -182 776"/>
    </vehicle>
    <vehicle id="passenger_2_457" type="passenger1" depart="20125.00" departLane="best">
        <route edges="-1422#2 -1422#1 -1422#0 -1418#26 -1418#25 -1418#24 -1418#23 -1418#21 -1418#20 -1418#19 -1418#18 -1418#17 -1418#16 -1418#13 -1418#12 -1418#11 -1418#10 -1418#9 -1418#8 -1418#7 -1418#6 -1418#5 -1418#3 -1418#2 -1418#1 -1418#0 312 153 313#0 313#1 193 204#3 204#4 194 198#3 198#0 154 317#0 317#1 71#0 -274#0 862#3 862#4 862#0 862#1 -729#2 -729#1 -729#0 693#0 693#1 693#2 693#3 693#4 693#5 -620#1 -620#0 584#1 584#2 584#3 632#0 632#1 623#2 596 447 563#0 563#1 563#2 1337#0 1337#1 1337#2 1337#3 1337#4 1605"/>
    </vehicle>
    <vehicle id="passenger_2_1398" type="passenger1" depart="20177.00" departLane="best">
        <route edges="1407#3 1407#4 1404#2 1404#3 1404#4 1404#5 -1418#11 -1418#10 936#0 936#1 936#2 936#3 936#4 936#5 936#6 936#7 294#2 294#3 821#0 821#1 933#0 933#1 933#2 933#3 216#9 216#10 291#1 291#2 291#3 -811#1 -811#0 183 -812#1 -812#0 755#0 755#1 755#2 755#3 755#4 755#5 755#6 -749#2 -749#1 -749#0 -1383#1 1385 731#1 731#2 731#3 731#4"/>
    </vehicle>
    <vehicle id="passenger_1_378" type="passenger2b" depart="20183.00" departLane="best">
        <route edges="-812#1 -812#0 755#0 755#1 755#2 755#3 755#4 755#5 755#6 -749#2 -749#1 -749#0 -1383#1 -1383#0 -1387#1 -1387#0 -1345#8 -1345#7 -1345#6 -1345#5 -1345#4 -1345#3 -1345#1 1502#0 1502#1 1502#2 -1506 -1354#17 -1354#16 -1354#15 -1354#14 -1354#13 -1354#12 -1354#11 -1354#10 -1354#9 -1354#8 -1354#7 -1354#6 -1354#5 -1354#4 -1354#3 -1354#1"/>
    </vehicle>
    <vehicle id="passenger_3_1306" type="passenger1" depart="20193.00" departLane="best">
        <route edges="-1398#6 -1398#5 -1398#4 -1398#3 -1398#1 -1398#0 1393#5 1393#6 1393#7 1375#1 1366#1 652#0 -654#2 -654#1 -654#0 1332#0 1332#1 1512#0 1512#1 1261#0 1261#1 1261#2 1261#3 1261#4 1261#5 1261#6 1261#7 1261#8 1261#9 1261#10 1261#11 1261#12 -1269#7 -1269#6 -1269#5 -1269#4 -1269#3 -1269#2 -1269#1 -1269#0 1386#1 1386#2 1386#3 1386#4 1386#5 812#1 -183 811#0 811#1 291#0 291#1 291#2 823#0 823#1 206 296 443#0 443#1"/>
    </vehicle>
    <vehicle id="passenger_3_1003" type="passenger1" depart="20196.00" departLane="best">
        <route edges="-1277 -1282#0 916#1 456 -918 -1437 -1298#2 -1295#2 -1295#1 -1295#0 -1300#1 -1300#0 856#3 856#0 -468#6 -468#5 -468#4 -468#3 -468#2 -468#1 -468#0 1313#1 1423#0 1423#1 1423#2 1423#3 1423#4 1423#5 1423#6 1423#7 497#1 236 494#0 494#1 494#2 494#3 494#4 350#2 350#3 350#4 -349 -95#0 -520#2 -520#1 -520#0 -584#11 -584#10 -584#9 -584#8 -584#7 -584#6 -584#5 -584#4 632#0 632#1 632#2 632#3 -619#5 -619#4 -619#3 -624#3 -624#2 -624#0 -925 -923 -1354#17 -1354#16 -1354#15 -1354#14 -1354#13 -1354#12 -1354#11 -1354#10 -1354#9 1606#0"/>
    </vehicle>
    <vehicle id="passenger_1_202" type="passenger1" depart="20217.00" departLane="best">
        <route edges="776 6#3 6#4 6#5 6#6 6#7 -8 204#4 194 198#3 198#0 154 317#0 317#1 71#0 71#1 -176 713 175 719 174 679 173 170 571#1 571#2 439#0 439#2 439#4 439#6 439#7 439#9 359#3 359#4 359#5 359#0 359#1 440#0"/>
    </vehicle>
    <vehicle id="passenger_2_1123" type="passenger2b" depart="20250.00" departLane="best">
        <route edges="834#3 834#4 834#5 834#6 834#8 907#1 907#2 907#3 -822#1 -807#2 -807#1 -807#0 820#0 820#1 820#2 -182 776 6#3 6#4 6#5 6#6 6#7 -8 204#4 204#1 204#2 204#3"/>
    </vehicle>
    <vehicle id="passenger_1_156" type="passenger2a" depart="20269.00" departLane="best">
        <route edges="-889#0 860#0 860#1 860#2 860#3 860#4 521#10 521#11 521#12 416#1 240#4 240#1 -564#6 -564#5 -564#4 -564#3 -564#2 -564#1 -564#0 563#1 563#2 1346#0 1346#1 1346#2 1346#3 1347#0 1347#1 1347#2 864 602 632#3 -619#5 -619#4 -619#3 -619#2 -619#1 -619#0 102 867#0 867#1 -733#13 -869#2 -869#1 -869#0 1499#1 1499#2 790#0 790#1 790#2 790#3"/>
    </vehicle>
    <vehicle id="passenger_3_1240" type="passenger2b" depart="20281.00" departLane="best">
        <route edges="-1282#0 916#1 456 -918 -1437 -1298#2 -1295#2 -1295#1 -1295#0 -1300#1 -1300#0 856#3 856#0 856#1 -1257#4 -1257#3 -1257#2 -1257#1 -1257#0 -1304#3 470 -493#4 -493#3 -493#2 -493#1 -493#0 231#1 -491#1 487 -495#0"/>
    </vehicle>
    <vehicle id="passenger_3_1751" type="passenger1" depart="20283.00" departLane="best">
        <route edges="-1277 -1282#0 916#1 456 -918 -1437 -1298#2 -1295#2 -1295#1 -1295#0 -1300#1 -1300#0 856#3 856#0 -468#6 -468#5 -468#4 -468#3 -468#2 -468#1 -468#0 1313#1 1423#0 1423#1 1423#2 1423#3 1423#4 1423#5 1423#6 1423#7 497#1 236 494#0 494#1 494#2 494#3 494#4 350#2 350#3 521#0 -525#1 532 521#2 521#3 521#4 521#5 521#6 521#8 521#9 521#10 521#11 521#12 416#1 240#4 240#1 240#2 241#0 241#1 -569#0"/>
    </vehicle>
    <vehicle id="passenger_2_1029" type="passenger3" depart="20331.00" departLane="best">
        <route edges="603#2 -614 -394#4 -630 629#2 629#3 -619#3 -619#2 -619#1 -619#0 102 867#0 867#1 -733#13 -869#2 -869#1 -869#0 1499#1 -700"/>
    </vehicle>
    <vehicle id="passenger_2_1436" type="passenger2a" depart="20353.00" departLane="best">