<?xml version="1.0" encoding="UTF-8"?>

<!--
    Monaco SUMO Traffic (MoST) Scenario
    Copyright (C) 2018
    Lara CODECA

    This program is free software: you can redistribute it and/or modify
    it under the terms of the GNU General Public License as published by
    the Free Software Foundation, either version 3 of the License, or
    (at your option) any later version.

    This program is distributed in the hope that it will be useful,
    but WITHOUT ANY WARRANTY; without even the implied warranty of
    MERCHANTABILITY or FITNESS FOR A PARTICULAR PURPOSE.  See the
    GNU General Public License for more details.

    You should have received a copy of the GNU General Public License
    along with this program.  If not, see <http://www.gnu.org/licenses/>.
-->

<routes xmlns:xsi="http://www.w3.org/2001/XMLSchema-instance" xsi:noNamespaceSchemaLocation="http://sumo.dlr.de/xsd/routes_file.xsd">
    <vehicle id="evehicle_2_528" type="evehicle" depart="18015.00" departLane="best">
        <route edges="-1346 1497#1 1497#2 1497#3 931 633#0 633#1 633#2 633#3 707 694#2 694#3 643 591 702#3 702#4 702#5"/>
    </vehicle>
    <vehicle id="evehicle_1_347" type="evehicle" depart="18023.00" departLane="best">
        <route edges="-810 -809 -812 -813 817 -789 -790 -788 703 744#0 744#1 744#2 744#3 889#4 889#0 889#1 889#2 -748#2 -748#0 15#6 15#7 -17 222#4 213 216#3 -208 890#5 890#6 890#7 890#8 -752#1 -752#0 -1491#3 -1491#2 -1491#1 -1491#0 -899#1 -754#1 -754#0 875#0 875#1 -734 -741#9 728"/>
    </vehicle>
    <vehicle id="evehicle_3_243" type="evehicle" depart="18043.00" departLane="best">
        <route edges="-1280#0 922#1 467 -924 -1433 -1296#2 -1293#2 -1293#1 -1293#0 -1298#1 -1298#0 862#3 862#0 -479#6 -479#5 -479#3 -479#2 -479#1 -479#0 1311#1 1419#0 1419#1 1419#2 1419#3 1419#4 1419#5 1419#6 1419#7 508#1 254 505#0 505#1 505#2 505#3 505#4 362#2 362#3 362#4 -361 -116 -530#3 -530#2 -530#1 -530#0 -593#10 -593#9 -593#8 -593#7 -593#6 -593#5 -593#4 -593#3 -593#2 -593#1 629#0 629#1 -702#5 -702#4 -702#3 -702#2 -702#0 737#0 737#1 737#2 868#2 868#3 747 890#1 890#2 890#3 890#4 890#5 890#6 890#7 890#8 890#11 889#1 889#2 889#3 -744#3 -744#2 -744#1 -744#0 -703 788 790 789 -817"/>
    </vehicle>
    <vehicle id="evehicle_2_304" type="evehicle" depart="18177.00" departLane="best">
        <route edges="822#1 -801#0 914 913#3 -828#1 -815#2 -815#1 -815#0 826#0 826#1 826#2 -202 784 15#3 15#4 15#5 15#6 15#7 -17 222#4 213 216#3 216#0 216#1"/>
    </vehicle>
    <vehicle id="evehicle_2_45" type="evehicle" depart="18211.00" departLane="best">
        <route edges="1366#0 1366#1 1366#2 1366#3 1366#4 1366#5 1366#6 1366#7 1366#8 1366#9 1366#10 1366#11 -836#5 -836#3 -836#2 -836#1 -836#0 1372#1 661#0 -663#2 -663#1 -663#0 1330#0 1330#1 1505#0 1505#1 1259#0 1259#1 1259#2 1259#3 1259#4 1259#5 1259#6 1259#7 1259#8 1259#9 1259#10 1259#11 1259#12 -1267#7 -1267#6 -1267#5 -1267#4 -1267#3 -1267#2 -1267#1 -1267#0 -1383#0 -1380#3 -1380#2 -1380#1 -1380#0 -1384#1 -1384#0 935#1 936 -901#5 -901#4"/>
    </vehicle>
    <vehicle id="evehicle_1_352" type="evehicle" depart="18218.00" departLane="best">
        <route edges="-1352#1 -1352#0 574#0 574#1 574#2 574#3 574#4 574#5 1345#0 1345#1 1345#2 606 605 458 572#0 573#0 573#1 573#2 573#3 573#4 573#5 573#6 -427#1 -531#9 -531#8 -531#7 -531#6 -531#5 -531#4 -531#3 -531#2 -531#1 -535#1 542 531#2 531#3 531#4 531#5"/>
    </vehicle>
    <vehicle id="evehicle_1_245" type="evehicle" depart="18277.00" departLane="best">
        <route edges="712#1 712#2 899#0 -754#1 -754#0 1495#1 -709 -728 -741#8 -739#5 -739#4 -739#3 -739#2 -739#1 -739#0 1380#1 1380#2 1380#3 -1379#0 1267#0 1267#1 1267#2 1267#3 1267#4 1267#5 1267#6 1267#7 -1259#12 -1259#11 -1259#10 -1259#9 -969 1259#11 1259#12 -1267#7 -1267#6 -1267#5 -1267#4 -1267#3 -1267#2"/>
    </vehicle>
    <vehicle id="evehicle_2_569" type="evehicle" depart="18334.00" departLane="best">
        <route edges="-1293#0 -1298#1 -1298#0 862#3 862#0 -479#6 -479#5 -479#3 -479#2 -479#1 -479#0 1311#1 1419#0 1419#1 1419#2 1419#3 1419#4 1419#5 1419#6 1419#7 508#1 254 505#0 505#1 505#2 505#3 505#4 362#2 362#3 362#4 -361 -116 -530#3 -530#2 -530#1 -530#0 -593#10 -593#9 -593#8 -593#7 -593#6 -593#5 -593#4 641#1 641#2 641#3 -628#5 -628#4 -628#3 -628#2 -628#1 -628#0 122 873#0 873#1 -741#11 -875#2 -875#1 -875#0 754#0"/>
    </vehicle>
    <vehicle id="evehicle_2_9" type="evehicle" depart="18419.00" departLane="best">
        <route edges="1502#0 1502#1 1502#2 826#1 826#2 -202 784 15#3 15#4 15#5 15#6 15#7 -17 222#4 213 216#3 216#0 174 331 92 -292 -196 721 195 727 194 688 193 190 602 580#1 580#2 580#3 580#4 596#3"/>
    </vehicle>
    <vehicle id="evehicle_3_133" type="evehicle" depart="18442.00" departLane="best">
        <route edges="1391#1 1391#2 1390#1 1390#2 1390#3 1390#4 1395#0 1395#1 1395#2 1395#3 1395#4 1395#5 1395#6 939#6 314 1584#1 894 301 1589 234#0 234#1 234#2 234#3 234#4 234#5 234#6 234#7 234#8 -938#3 -938#2 -938#1 -938#0 -827#1 -827#0 867#0 867#1 867#2 327#1"/>
    </vehicle>
    <vehicle id="evehicle_1_196" type="evehicle" depart="18554.00" departLane="best">
        <route edges="-757#0 -1380#1 1382 739#1 739#2 739#3 739#4 739#5 741#8 728 709 1495#2 1495#3 754#0 754#1 899#1 1491#0 1491#1 1491#2 1491#3 752#0 752#1 890#11 889#1 889#2 -748#2 -748#0 15#6 15#7 -17 222#4 213 216#3 -208 -758#2 -732#0 890#2 374 376 -377#0"/>
    </vehicle>
    <vehicle id="evehicle_2_274" type="evehicle" depart="18584.00" departLane="best">
        <route edges="-504#4 -504#3 -504#2 -504#1 -504#0 249#1 -502#1 -502#0 -112 -510#3 -510#2 -510#1 -510#0 117 532#0 532#1 268#3 268#0 268#1 -595#1 -595#0 -119 -189 -193 -688 -194 -727 -195 -721 196 292 -92 373 215 216#2 -213 222#1 221 -826#2 -826#1 -826#0 905 815#1 815#2 828#1 913#4 913#0 913#1 -914 801#0 801#1 801#2 304#0 304#1"/>
    </vehicle>
    <vehicle id="evehicle_1_72" type="evehicle" depart="18699.00" departLane="best">
        <route edges="-867#1 -867#0 309#0 309#2 867#0 867#1 867#2 327#1 212 222#3 222#4 213 216#3 216#0 174 331 92 -292 -196 721 195 727 194 688 193 190 602 580#1 580#2 450#0 450#2 450#4 450#5 450#6 534 539 451#2"/>
    </vehicle>
    <vehicle id="evehicle_3_244" type="evehicle" depart="18755.00" departLane="best">
        <route edges="-1432 -1275 -1280#0 922#1 467 -924 -1433 -1296#2 -1293#2 -1293#1 -1293#0 -1298#1 -1298#0 862#3 862#0 -479#6 -479#5 -479#3 -479#2 -479#1 -479#0 1311#1 1419#0 1419#1 1419#2 1419#3 1419#4 1419#5 1419#6 1419#7 508#1 254 505#0 505#1 505#2 505#3 505#4 362#2 362#3 362#4 -361 -116 -530#3 -530#2 -530#1 -530#0 -593#10 -593#9 -593#8 -593#7 -593#6 -593#5 -593#4 641#1 641#2 641#3 -628#5 -628#4 -628#3 -628#2 -628#1 -628#0 122 873#0 873#1 -741#11 -875#2 -875#1 -875#0 1495#1 1495#2 798#0 798#1 798#2 798#3 798#4 798#5 -204 -827#2 -827#1 -827#0 309#0 -940#7 -940#6"/>
    </vehicle>
    <vehicle id="evehicle_1_421" type="evehicle" depart="18788.00" departLane="best">
        <route edges="216#2 216#3 -208 890#5 890#6 890#7 890#8 -752#1 -752#0 -1491#3 -1491#2 -1491#1 -1491#0 -899#1 -899#0 874#0 874#1 874#2 127 122 873#0 720 712#2"/>
    </vehicle>
    <vehicle id="evehicle_2_496" type="evehicle" depart="18859.00" departLane="best">
        <route edges="-1418#2 -1418#1 -1418#0 -1415#26 -1415#25 -1415#24 -1415#23 -1415#21 -1415#20 -1415#19 -1415#18 -1415#17 -1415#16 -1415#13 -1415#12 -1415#11 -1415#10 -1415#9 -1415#8 -1415#7 -1415#6 -1415#5 -1415#3 -1415#2 -1415#1 -1415#0 326 173 327#0 327#1 212 222#3 17 15#0 15#1 15#2 15#3 15#4 15#5 748#0 748#2 889#3 889#4 706 745#0 745#1 745#2 745#3 745#4 296 716#0 716#1 755"/>
    </vehicle>
    <vehicle id="evehicle_2_329" type="evehicle" depart="18958.00" departLane="best">
        <route edges="1502#1 1502#2 826#1 826#2 -202 784 15#3 15#4 15#5 15#6 15#7 -17 222#4 213 216#3 -208 -758#2 -758#1 -758#0 743#4 743#5 868#0 714#0 714#1 714#2 -237 1490#2 1494"/>
    </vehicle>
    <vehicle id="evehicle_2_64" type="evehicle" depart="18970.00" departLane="best">
        <route edges="919 920 224 310 326 173 327#0 327#1 212 222#3 17 15#0 15#1 15#2 15#3 15#4 15#5 748#0 -736 751#1"/>
        <stop parkingArea="152486" duration="43200.00"/>
    </vehicle>
    <vehicle id="evehicle_1_277" type="evehicle" depart="18999.00" departLane="best">
        <route edges="-688 -194 -727 -195 -721 196 292 -92 373 215 216#2 216#3 -208 890#5 890#6 890#7 890#8 -752#1 -752#0 -1491#3 -1491#2 -1491#1 -1491#0 -899#1 -899#0 874#0 874#1 874#2 127 628#0 628#1 628#2 628#3 628#4 405#0 405#1 405#2"/>
    </vehicle>
    <vehicle id="evehicle_2_370" type="evehicle" depart="19084.00" departLane="best">
        <route edges="1384#0 1384#1 1380#0 1380#1 1385 757#1 757#2 -763#4 -763#3 -763#2 -763#1"/>
    </vehicle>
    <vehicle id="evehicle_2_383" type="evehicle" depart="19134.00" departLane="best">
        <route edges="104 1498 -379#0 900#1 500#2 500#3 500#4 23 -1314#0 249#0 249#1 -502#1 -502#0 -112 -510#3 -510#2 -510#1 -510#0 117 532#0 532#1 268#3 268#0 268#1 -595#1 596#0 596#1 596#2 596#3 580#0 272 -588 -192 -689 -714#2 328 1490#1 237 689 192"/>
    </vehicle>
    <vehicle id="evehicle_1_293" type="evehicle" depart="19335.00" departLane="best">
        <route edges="759#1 759#2 759#3 759#4 759#5 759#6 -798#3 -798#2 -798#1 -798#0 1495#3 875#0 875#1 875#2 741#11 686 123"/>
    </vehicle>
    <vehicle id="evehicle_3_341" type="evehicle" depart="19366.00" departLane="best">
        <route edges="-1280#0 922#1 467 -924 -1433 -1296#2 -1293#2 -1293#1 -1293#0 -1298#1 -1298#0 862#3 862#0 -479#6 -479#5 -479#3 -479#2 -479#1 -479#0 1311#1 1419#0 1419#1 1419#2 1419#3 1419#4 1419#5 1419#6 1419#7 508#1 254 505#0 505#1 505#2 505#3 505#4 362#2 362#3 362#4 -361 -116 -530#3 -530#2 -530#1 -530#0 -593#10 -593#9 -593#8 -593#7 -593#6 -593#5 -593#4 -593#3 -593#2 -593#1 629#0 629#1 -702#5 -702#4 -702#3 -702#2 -702#0 737#0 737#1 737#2 868#2 868#3 868#4 868#0 714#0 863 -716#4 -716#3"/>
    </vehicle>
    <vehicle id="evehicle_1_410" type="evehicle" depart="19393.00" departLane="best">
        <route edges="-748#0 15#6 15#7 -17 222#4 213 216#3 216#0 174 331 92 -292 -196 721 195 727 194 688 193 190 602 580#1 580#2 580#3 580#4 596#3"/>
    </vehicle>
    <vehicle id="evehicle_1_27" type="evehicle" depart="19401.00" departLane="best">
        <route edges="380#0 -1378#2 -1378#1 -1378#0 901#5 740 -741#8 -741#7 -741#6 -741#5 -741#4"/>
        <stop parkingArea="152518" duration="43200.00"/>
    </vehicle>
    <vehicle id="evehicle_1_5" type="evehicle" depart="19423.00" departLane="best">
        <route edges="92 -292 -196 721 195 727 194 688 193 190 602 580#1 580#2 580#3 580#4 596#3 1492 604#0 604#1 604#2 604#3 604#4 604#5 575#0 599#1 599#2 702#2 -591 -643 -694#3 -694#2 -694#1 -694#0 -628#0 122 873#0 873#1 -741#11 -741#10 -741#9 -741#8 -741#7 -741#6 -741#5"/>
    </vehicle>
    <vehicle id="evehicle_3_275" type="evehicle" depart="19468.00" departLane="best">
        <route edges="-136 -1282 -139 -1280#1 -1280#0 922#1 467 -924 -1433 -1296#2 -1293#2 -1293#1 -1293#0 -1298#1 -1298#0 862#3 862#0 -479#6 -479#5 -479#3 -479#2 -479#1 -479#0 1311#1 1419#0 1419#1 1419#2 1419#3 1419#4 1419#5 1419#6 1419#7 508#1 254 505#0 505#1 505#2 505#3 505#4 362#2 362#3 362#4 -361 -116 -530#3 -530#2 -530#1 -530#0 -593#10 -593#9 -593#8 -593#7 -593#6 -593#5 -593#4 -593#3 -593#2 -593#1 629#0 629#1 -702#5 -702#4 -702#3 -702#2 -702#0 737#0 737#1 737#2 868#2 868#3 747 890#1 890#2 890#3 890#4 208 216#0 216#1 216#2 -213 222#1 222#2 222#3 17 15#0 16 898 -173 -326 -888 1415#1 1415#2 1415#3 1415#5 1415#6 1415#7 1415#8 1415#9 940#0 940#1 940#2 940#3 940#4 940#5 940#6 940#7"/>
    </vehicle>
    <vehicle id="evehicle_3_435" type="evehicle" depart="19512.00" departLane="best">
        <route edges="-1280#0 922#1 467 -924 -1433 -1296#2 -1293#2 -1293#1 -1293#0 -1298#1 -1298#0 862#3 862#0 -479#6 -479#5 -479#3 -479#2 -479#1 -479#0 1311#1 1419#0 1419#1 1419#2 1419#3 1419#4 1419#5 1419#6 1419#7 508#1 254 505#0 505#1 505#2 505#3 505#4 362#2 362#3 362#4 -361 -116 -530#3 -530#2 -530#1 -530#0 -593#10 -593#9 -593#8 -593#7 -593#6 -593#5 -593#4 641#1 641#2 641#3 -628#5 -628#4 -628#3 -628#2 -628#1 -628#0 122 873#0 720 712#2 899#0 -754#1"/>
    </vehicle>
    <vehicle id="evehicle_2_6" type="evehicle" depart="19625.00" departLane="best">
        <route edges="-908 -549#1 -549#0 -1363#1 661#0 -663#2 -663#1 -663#0 1330#0 1330#1 1505#0 1505#1 1259#0 1259#1 1259#2 1259#3 1259#4 1259#5 1259#6 1259#7 1259#8 1259#9 1259#10 1259#11 1259#12 -1267#7 -1267#6 -1267#5 -1267#4 -1267#3 -1267#2 -1267#1 -1267#0 1383#2 1383#3 1383#4 763#0 763#1 -298"/>
    </vehicle>
    <vehicle id="evehicle_1_303" type="evehicle" depart="19635.00" departLane="best">
        <route edges="-723#1 -723#0 718#1 -754#1 -754#0 1495#1 -709 -728 -741#8 -741#7 -741#6 -741#5 -741#4 -741#3 -741#2 -741#1 -741#0 920 -829#1 -829#0 306#3 306#0 306#1 306#2 829#0 829#1"/>
    </vehicle>
    <vehicle id="evehicle_3_32" type="evehicle" depart="19688.00" departLane="best">
        <route edges="-1275 -1280#0 922#1 467 -924 -1433 -1296#2 -1293#2 -1293#1 -1293#0 -1298#1 -1298#0 862#3 862#0 -479#6 -479#5 -479#3 -479#2 -479#1 -479#0 1311#1 1419#0 1419#1 1419#2 1419#3 1419#4 1419#5 1419#6 1419#7 508#1 254 505#0 505#1 505#2 505#3 505#4 362#2 362#3 362#4 -361 -116 -530#3 -530#2 -530#1 -530#0 -593#10 -593#9 -593#8 -593#7 -593#6 -593#5 -593#4 641#1 641#2 641#3 -628#5 -628#4 -628#3 -628#2 -628#1 -628#0 122 873#0 873#1 -741#11 -741#10 -741#9 -741#8 -741#7 -741#6 -741#5 -741#4 -741#3 -741#2 -741#1 -741#0 920 -829#1 -829#0 306#3 -819#1 -819#0 203"/>
    </vehicle>
    <vehicle id="evehicle_2_267" type="evehicle" depart="19697.00" departLane="best">
        <route edges="-815#1 -815#0 1503 906#2 906#3 906#4 811#0 811#1 811#2 802#5 802#0 802#1 802#2 1586 200#0 200#0-AddedOffRampEdge 200#1 897 743#2 743#3 743#4 743#5 868#0 868#1 -737#2 -737#1 -737#0 702#0 702#2 702#3 702#4 702#5 -629#1 -629#0 593#1 593#2 593#3 641#1 605 458 572#0 573#0 573#1 573#2 573#3 573#4 573#5 1337#0 1337#1 1337#2 1337#3"/>
    </vehicle>
    <vehicle id="evehicle_1_66" type="evehicle" depart="19723.00" departLane="best">
        <route edges="875#0 875#1 875#2 741#11 686 123 712#0 712#1 712#2 899#0 899#1 1491#0 1491#1 1491#2 1491#3 752#0 752#1 890#11 889#1 889#2 889#3 -744#3 -744#2 -744#1"/>
    </vehicle>
    <vehicle id="evehicle_1_327" type="evehicle" depart="19762.00" departLane="best">
        <route edges="268#1 268#2 268#3 268#0 590#0 590#1 590#2 590#3 590#4 590#5 590#6 -594#1 -594#0 604#5 575#0 599#1 599#2 702#2 -591 -643 -694#3 -694#2 -694#1 -694#0 -628#0 122 873#0 873#1 686 123 712#0 746"/>
    </vehicle>
    <vehicle id="evehicle_3_437" type="evehicle" depart="19829.00" departLane="best">
        <route edges="-98 1285 467 -924 -1433 -1296#2 -1293#2 -1293#1 -1293#0 -1298#1 -1298#0 862#3 862#0 -479#6 -479#5 -479#3 -479#2 -479#1 -479#0 1311#1 1419#0 1419#1 1419#2 1419#3 1419#4 1419#5 1419#6 1419#7 508#1 254 505#0 505#1 505#2 505#3 505#4 362#2 362#3 531#0 -535#1 542 531#2 531#3 531#4 531#5 531#6 531#7 531#8 531#9 427#1 -573#6 -573#5 -573#4 -573#3 -573#2 -573#1 -573#0 572#1 572#2 1344#0 1344#1 1344#2 1344#3 1345#0 1345#1 1345#2 870"/>
    </vehicle>
    <vehicle id="evehicle_1_367" type="evehicle" depart="19903.00" departLane="best">
        <route edges="873#0 873#1 686 123 712#0 746 874#2 127 628#0 694#0 694#1 694#2 694#3 643 591 -702#2 -599#2 -599#1 -575#0 -604#5 -604#4 -604#3 -604#2 -604#1 -604#0 597 272 -588 -192 -689"/>
    </vehicle>
    <vehicle id="evehicle_2_131" type="evehicle" depart="20010.00" departLane="best">
        <route edges="-257#2 -522 955#2 955#3 1313#1 1313#2 1313#3 1313#4 1313#5 1313#6 1313#7 1313#8 1313#9 1313#10 1313#11 1313#12 1313#13 1313#14 861#1 861#2 861#3 -1338#1 -1338#0 574#0 574#1 574#2 574#3 574#4 574#5 1345#0 1345#1 1345#2 606 641#2 641#3 -628#5 -628#4 -628#3 -628#2 -628#1 -628#0 122 873#0 873#1 -741#11 -875#2 -875#1 -875#0 1495#1 1495#2 798#0 798#1 798#2 798#3 798#4 798#5 -204 -827#2 -827#1 -827#0 309#0 830#0"/>
    </vehicle>
    <vehicle id="evehicle_3_85" type="evehicle" depart="20064.00" departLane="best">
        <route edges="-1284 -459 -98 1285 467 -924 -1433 -1296#2 -1293#2 -1293#1 -1293#0 -1298#1 -1298#0 862#3 862#0 -479#6 -479#5 -479#3 -479#2 -479#1 -479#0 1311#1 1419#0 1419#1 1419#2 1419#3 1419#4 1419#5 1419#6 1419#7 508#1 254 505#0 505#1 505#2 505#3 505#4 362#2 362#3 362#4 -361 -116 -530#3 -530#2 -530#1 -530#0 -593#10 -593#9 -593#8 -593#7 -593#6 -593#5 -593#4 -593#3 -593#2 -593#1 629#0 629#1 -702#5 -702#4 -702#3 -702#2 -702#0 737#0 737#1 737#2 868#2 868#3 747 890#1 890#2 890#3 890#4 208 216#0 216#1 216#2 -213 222#1 221 -826#2 -826#1 -826#0 1503 906#2 906#3 814#0 896#0 896#1 369#2 369#3 -896#1"/>
    </vehicle>
    <vehicle id="evehicle_1_84" type="evehicle" depart="20137.00" departLane="best">
        <route edges="-899#3 -899#2 -899#1 -899#0 874#0 874#1 874#2 127 628#0 628#1 628#2 628#3 628#4 628#5 630 632#0 632#1 605 458 572#0 573#0 573#1 573#2 573#3 573#4"/>
    </vehicle>
    <vehicle id="evehicle_1_433" type="evehicle" depart="20205.00" departLane="best">
        <route edges="712#1 712#2 899#0 -754#1 -754#0 875#0 875#1 875#2 741#11 686 123 712#0 746 874#2 127 628#0 694#0 694#1 694#2 694#3 643 591 -702#2 -599#2 -599#1 -575#0 -604#5 -604#4 -604#3 -604#2 -604#1 -604#0 597 580#1 580#2 450#0 450#2 450#4 450#5 450#6 534 539 451#2"/>
    </vehicle>
    <vehicle id="evehicle_2_323" type="evehicle" depart="20334.00" departLane="best">
        <route edges="1352#15 1352#16 929 -1497#3 -1499 -1352#16 -1352#15 -1352#14 -1352#13 -1352#12 -1352#11 -1352#10 -1352#9 -1352#8 -1352#7 -1352#6"/>
    </vehicle>
    <vehicle id="evehicle_2_189" type="evehicle" depart="20392.00" departLane="best">
        <route edges="494#2 -908 -549#1 -549#0 -1363#1 661#0 -663#2 -663#1 -663#0 1330#0 1330#1 1505#0 1505#1 1259#0 1259#1 1259#2 1259#3 1259#4 1259#5 1259#6 1259#7 1259#8 1259#9 1259#10 1259#11 1259#12 -1267#7 -1267#6 -1267#5 -1267#4 -1267#3 -1267#2 -1267#1 -1267#0 -1383#0 -1380#3 -1380#2 -1380#1 1382 739#1 739#2 739#3 739#4 739#5 741#8 728 709 1495#2 1495#3 754#0 754#1 899#1 1491#0 1491#1 1491#2 1491#3 752#0 752#1 890#11 889#1 889#2 889#3"/>
    </vehicle>
    <vehicle id="evehicle_1_186" type="evehicle" depart="20400.00" departLane="best">
        <route edges="-510#0 117 532#0 532#1 268#3 268#0 268#1 -595#1 -595#0 -119 -189 -193 -688 -194 -727 -195 -721 196 292 -92 373 215 216#2 -213 222#1 221 -826#2 -826#1 -1502#2 -1502#1 -1502#0"/>
    </vehicle>
    <vehicle id="evehicle_1_429" type="evehicle" depart="20406.00" departLane="best">
        <route edges="741#1 824 -741#0 920 -829#1 -829#0 306#3 306#0 -234#10 -234#9 -938#3 -938#2 -938#1 -938#0 827#2 204"/>
    </vehicle>
    <vehicle id="evehicle_3_141" type="evehicle" depart="20413.00" departLane="best">
        <route edges="782 96 452 301 1589 234#0 234#1 234#2 234#3 234#4 234#5 234#6 234#7 234#8 234#9 234#10 306#1 306#2 829#0 829#1 919 741#0 741#1 741#2 741#3 741#4 741#5 741#6 741#7 741#8 741#9 741#10 741#11 686 123 712#0 746 874#2 127 628#0 694#0 694#1 694#2 -466 -869#2 -869#1"/>
    </vehicle>
    <vehicle id="evehicle_3_376" type="evehicle" depart="20511.00" departLane="best">
        <route edges="1398#1 1397#1 937#0 937#1 128 1270 1589 234#0 234#1 234#2 234#3 234#4 234#5 234#6 234#7 234#8 234#9 234#10 306#1 306#2 829#0 829#1 919 741#0 741#1 741#2 741#3 741#4 741#5 741#6 741#7 741#8 741#9 741#10 741#11 686 123 712#0 746 874#2 127 628#0 628#1 628#2 628#3 628#4 628#5 630 631 583#0 583#1 583#2"/>
    </vehicle>
    <vehicle id="evehicle_3_229" type="evehicle" depart="20524.00" departLane="best">
        <route edges="-1397#0 -1396 1391#1 1391#2 1390#1 1390#2 1390#3 1390#4 1395#0 1395#1 1395#2 1395#3 1395#4 1395#5 1395#6 939#6 314 1584#1 894 301 1589 234#0 234#1 234#2 234#3 234#4 234#5 234#6 234#7 234#8 -938#3 -938#2 -938#1 -938#0 -827#1 -827#0 867#0 867#1 867#2 327#1 212 222#3 17 15#0 15#1 15#2 15#3 15#4 15#5 748#0 753"/>
    </vehicle>
    <vehicle id="evehicle_2_450" type="evehicle" depart="20533.00" departLane="best">
        <route edges="1335#1 1335#2 1335#3 1335#4 943#0 943#1 574#1 574#2 574#3 574#4 574#5 1345#0 1345#1 1345#2 606 641#2 641#3 630 631 583#0 583#1 583#2 -604#5 -604#4 -604#3 -604#2 -604#1 -604#0 597 580#1 580#2 580#3 580#4 596#3 596#4 185 -193 -688 -194 -727 -195 -721"/>
    </vehicle>
    <vehicle id="evehicle_2_303" type="evehicle" depart="20561.00" departLane="best">
        <route edges="1522#2 1522#1 -950#2 1288#0 1288#1 1288#2 1288#3 1288#4 -1286#0 -142 -1291 141 1289 1290 140 -1301#1 1299#0 1299#1 100 1258#0 1258#1 1258#2 1258#3 1258#4 1311#1 1419#0 1419#1 1419#2 1419#3 1419#4 1419#5 1419#6 1419#7 508#1 254 505#0 505#1 505#2 505#3 505#4 362#2 362#3 362#4 -361 -116 -530#3 -530#2 -530#1 -530#0 -593#10 -593#9 -593#8 -593#7 -593#6 -593#5 -593#4 -593#3 -593#2 -593#1 629#0 629#1 -702#5 -702#4 -702#3 -702#2 -702#0 737#0 737#1 737#2 868#2 868#3 747 890#1 890#2 890#3 890#4 890#5 890#6 890#7 890#8 890#11 889#1 889#2 889#3 -744#3 -744#2 -744#1 -744#0 -703 690 -699 -700 701 726"/>
    </vehicle>
    <vehicle id="evehicle_2_1" type="evehicle" depart="20584.00" departLane="best">
        <route edges="-1401#0 -1415#13 -1415#12 -1415#11 -1415#10 -1415#9 -1415#8 -1415#7 -1415#6 -1415#5 -1415#3 -1415#2 -1415#1 -1415#0 326 173 327#0 327#1 212 222#3 222#4 213 216#3 -208 -758#2 -758#1 -758#0 743#4 743#5 868#0 868#1 -737#2 -737#1 -737#0 -697 575#2"/>
    </vehicle>
    <vehicle id="evehicle_2_392" type="evehicle" depart="20584.00" departLane="best">
        <route edges="-644#2 -644#1 -644#0 1259#7 1259#8 1259#9 1259#10 1259#11 1259#12 -1267#7 -1267#6 -1267#5 -1267#4 -1267#3 -1267#2 -1267#1 -1267#0 -1383#0 -1380#3 -1380#2 -1380#1 1382 739#1 739#2 739#3 739#4 739#5 741#8 741#9 741#10 741#11 686 123 712#0 746 874#2 127 628#0 694#0 694#1 694#2 694#3 -869#4"/>
    </vehicle>
    <vehicle id="evehicle_1_153" type="evehicle" depart="20589.00" departLane="best">
        <route edges="871#2 871#3 871#4 115 -517 187 512 513#1 513#2 505#2 505#3 505#4 362#2 362#3 362#4 -361 -116 -530#3 -530#2 -530#1 -530#0 -593#10 -593#9 -593#8 -593#7 -593#6 -593#5 -593#4 -593#3 -593#2 -593#1 629#0 629#1 -702#5 -702#4 -702#3 -702#2 -702#0 737#0 737#1 737#2 868#2 868#3 747 890#1 890#2 890#3 890#4 890#5 890#6 890#7 890#8 890#11 889#1 889#2 889#3 -744#3 -744#2 -744#1 -744#0 -703 788 790 789 -787"/>
    </vehicle>
    <vehicle id="evehicle_3_289" type="evehicle" depart="20610.00" departLane="best">
        <route edges="-98 1285 467 -924 -1433 -1296#2 -1293#2 -1293#1 -1293#0 -1298#1 -1298#0 862#3 862#0 -479#6 -479#5 -479#3 -479#2 -479#1 -479#0 1311#1 1419#0 1419#1 1419#2 1419#3 1419#4 1419#5 1419#6 1419#7 508#1 254 505#0 505#1 -513#2 -513#1 -512 -187 517"/>
    </vehicle>
    <vehicle id="evehicle_2_164" type="evehicle" depart="20698.00" departLane="best">
        <route edges="1315 114 508#1 254 505#0 505#1 505#2 505#3 505#4 362#2 362#3 362#4 -361 -116 -530#3 -530#2 -530#1 -530#0 -593#10 -593#9 -593#8 -593#7 -593#6 -593#5 -593#4 641#1 641#2 641#3 -628#5 -628#4 -628#3 -628#2 -628#1 -628#0 122 873#0 720 712#2 899#0 -718#1 723#0 723#1"/>
    </vehicle>
    <vehicle id="evehicle_3_300" type="evehicle" depart="20798.00" departLane="best">
        <route edges="-1280#0 922#1 467 -924 -1433 -1296#2 -1293#2 -1293#1 -1293#0 -1298#1 -1298#0 862#3 862#0 862#1 -1255#4 -1255#3 -1255#2 -1255#1 -1255#0 -1302#3 481 -504#4 -504#3 -504#2 -504#1 -504#0 249#1 -502#1 498 -506#0 510#3 113"/>
    </vehicle>
    <vehicle id="evehicle_2_253" type="evehicle" depart="20830.00" departLane="best">
        <route edges="922#1 467 -924 -1433 -1296#2 -1293#2 -1293#1 -1293#0 -1298#1 -1298#0 862#3 862#0 862#1 -1255#4 -1255#3 -1255#2 -1255#1 -1255#0 -1304#4 -1304#3 -1304#2 -478#1 -478#0 104 1498 -379#0 900#1 500#2 500#3 500#4 23 1314#1 1314#2 109 366#0 366#1 366#2 371#1 451#0 451#1 451#2 451#3 451#4 -394"/>
        <stop parkingArea="152491" duration="43200.00"/>
    </vehicle>
    <vehicle id="evehicle_2_159" type="evehicle" depart="20956.00" departLane="best">
        <route edges="-1323#4 -1323#3 -1323#2 -1323#1 -1323#0 148 1325 -1322#0 -149 -1324#1 -1324#0 -150 -1351#5 -1261#5 -1261#4 -1263#11 -1263#10 -1263#9 -1263#8 -1263#7 -1263#6 -1263#5 -1263#4 -1263#2 -1263#1 -1263#0 -1354#1 -1354#0 1352#14 1352#15 1352#16 929 931 633#0 633#1 633#2 633#3 -628#2 -628#1 -628#0 122 873#0 720 712#2 899#0 899#1 1491#0 1491#1 1491#2 1491#3 752#0 752#1 890#11 889#1 889#2 889#3 -744#3 -744#2 -744#1 -744#0 -703 690 -699 -700 701 726 730 -733 -715 -796 -791 -797 -805 -808#1 -808#0 -872 -810 -809 -812 -813 817"/>
    </vehicle>
    <vehicle id="evehicle_2_232" type="evehicle" depart="21006.00" departLane="best">
        <route edges="973 1359#1 1359#2 1359#3 1359#4 1359#5 1359#6 1359#7 1351#3 1351#4 -1261#5 -1261#4 -1263#11 -1263#10 -1263#9 -1263#8 -1263#7 -1263#6 -1263#5 -1263#4 -1263#2 -1263#1 -1263#0 -1354#1 -1354#0 1352#14 1352#15 1352#16 929 931 633#0 633#1 633#2 633#3 628#3 628#4 628#5 630 631 629#0 -615#2 -615#1 -615#0 575#1 697"/>
    </vehicle>
    <vehicle id="evehicle_1_283" type="evehicle" depart="21057.00" departLane="best">
        <route edges="737#0 737#1 737#2 868#2 868#3 747 890#1 890#2 890#3 890#4 890#5 890#6 890#7 890#8 890#11 889#1 889#2 889#3 889#4 706 745#0 745#1 745#2 745#3 745#4 296 716#0 716#1"/>
    </vehicle>
    <vehicle id="evehicle_3_392" type="evehicle" depart="21079.00" departLane="best">
        <route edges="160 1572 175 433 94 430#0 442 480 426#3 426#4 1320#0 1320#1 1320#2 1320#3 1320#4 1320#5 1320#6 1320#7 -1322#1 -1322#0 -149 -1324#1 -1324#0 -150 -1351#5 -1261#5 -1261#4 -1263#11 -1263#10 -1263#9 -1263#8 -1263#7 -1263#6 -1263#5 -1263#4 -1263#2 -1263#1 -1263#0 -1354#1 -1354#0 1352#14 1352#15 1352#16 929 931 633#0 633#1 633#2 633#3 628#3 628#4 628#5 630 631 583#0 583#1 583#2 -604#5 -604#4 603#0 603#1 603#2 386#0"/>
    </vehicle>
    <vehicle id="evehicle_1_35" type="evehicle" depart="21097.00" departLane="best">
        <route edges="-1509#0 1319#2 1319#3 1319#4 1319#5 513#1 513#2 505#2 505#3 505#4 362#2 362#3 362#4 -361 -116 -530#3 -530#2 -530#1 -530#0 -593#10 -593#9 -593#8 -593#7 -593#6 -593#5 -593#4 641#1 641#2 641#3 -628#5 -628#4 -628#3 -628#2 -628#1 -628#0 122 873#0 720 712#2 899#0 899#1 899#2 899#3 899#4"/>
    </vehicle>
    <vehicle id="evehicle_1_41" type="evehicle" depart="21109.00" departLane="best">
        <route edges="1353#1 1353#2 608 574#3 574#4 574#5 1345#0 1345#1 1345#2 606 641#2 641#3 -628#5 -628#4 -628#3 -628#2 -628#1 -628#0 122 873#0 873#1 -741#11 -875#2 -875#1 -875#0 754#0 754#1"/>
    </vehicle>
    <vehicle id="evehicle_3_232" type="evehicle" depart="21140.00" departLane="best">
        <route edges="937#1 128 1270 1589 234#0 234#1 234#2 234#3 234#4 234#5 234#6 234#7 234#8 234#9 234#10 306#1 306#2 829#0 829#1 919 741#0 741#1 741#2 741#3 741#4 741#5 741#6 741#7 741#8 741#9 741#10 741#11 686 123 712#0 746 874#2 127 628#0 694#0 694#1 694#2 694#3 643 591 -702#2 -599#2 -599#1 -575#0 -604#5 -604#4 -604#3 -604#2 -604#1 -604#0 597 580#1 580#2 580#3 580#4 596#3 596#4 185 -193 -688 -194 -727 -195 -721 196 292"/>
    </vehicle>
    <vehicle id="evehicle_2_559" type="evehicle" depart="21146.00" departLane="best">
        <route edges="1304#0 1304#1 -478#1 -478#0 104 1498 -379#0 900#1 500#2 500#3 500#4 23 -1314#0 249#0 249#1 -502#1 -502#0 -112 -510#3 -510#2 -510#1 -510#0 117 532#0 532#1 268#3 268#0 268#1 -595#1 -595#0 -119 -189 -193 -688 -194 -727 -195 -721 196 292 -92 373 215 216#2 216#3 216#0 174 331 92 -292 -196 721 195 727 194 688 193"/>
    </vehicle>
    <vehicle id="evehicle_3_334" type="evehicle" depart="21174.00" departLane="best">
        <route edges="1397#1 937#0 937#1 128 1270 1589 234#0 234#1 234#2 234#3 234#4 234#5 234#6 234#7 234#8 -938#3 -938#2 -938#1 -938#0 -827#1 -827#0 867#0 867#1 867#2 327#1 212 222#3 17 15#0 15#1 15#2 15#3 15#4 15#5 748#0 748#2 889#3 889#4 706 745#0 745#1 745#2 745#3 745#4 296 716#0 716#1 716#2 716#3 716#4 -863"/>
    </vehicle>
    <vehicle id="evehicle_1_281" type="evehicle" depart="21197.00" departLane="best">
        <route edges="580#2 580#3 580#4 596#3 596#4 185 -193 -688 -194 -727 -195 -721 196 292 -92 373 215 216#2 216#3 -208 890#5 890#6 890#7 890#8 890#11 889#1 889#2"/>
    </vehicle>
    <vehicle id="evehicle_2_501" type="evehicle" depart="21202.00" departLane="best">
        <route edges="-833 1393#1 317#3 234#0 234#1 234#2 234#3 234#4 234#5 234#6 234#7 234#8 234#9 234#10 306#1 306#2 829#0 829#1 919 741#0 741#1 741#2 741#3 741#4 741#5 741#6 741#7 741#8 741#9 741#10 741#11 686 123 712#0 746 874#2 127 628#0 628#1 628#2 628#3 628#4 628#5 630 631 593#1 593#2 593#3 593#4 593#5 593#6 593#7 593#8 593#9 593#10 593#11 530#1 530#2 530#3 116 361 362#1 -505#4 -505#3 -505#2 -505#1 -505#0 499 111 250#1 114 508#1 508#2"/>
    </vehicle>
    <vehicle id="evehicle_1_229" type="evehicle" depart="21218.00" departLane="best">
        <route edges="-700 701 -687 -690 703 744#0 744#1 744#2 744#3 889#4 706 745#0 745#1 745#2 745#3 745#4 743#0 743#1 743#2 743#3 743#4 743#5 868#0 868#1 -737#2 -737#1 -737#0 702#0 -599#2 -599#1 -575#0 -604#5 594#0 594#1 -590#6 -590#5"/>
    </vehicle>
    <vehicle id="evehicle_1_102" type="evehicle" depart="21253.00" departLane="best">
        <route edges="739#4 739#5 741#8 741#9 741#10 741#11 686 123 712#0 746 874#2"/>
    </vehicle>
    <vehicle id="evehicle_3_43" type="evehicle" depart="21274.00" departLane="best">
        <route edges="-1285 138 459 922#1 467 -924 -1433 -1296#2 -1293#2 -1293#1 -1293#0 -1298#1 -1298#0 862#3 862#0 -479#6 -479#5 -479#3 -479#2 -479#1 -479#0 1311#1 1419#0 1419#1 1419#2 1419#3 1419#4 1419#5 1419#6 1419#7 508#1 254 505#0 505#1 505#2 505#3 505#4 362#2 362#3 362#4 -361 -116 -530#3 -530#2 -530#1 -530#0 -593#10 -593#9 -593#8 -593#7 -593#6 -593#5 -593#4 -594#2 -594#1 -594#0 604#5 575#0 599#1 599#2 702#2"/>
    </vehicle>
    <vehicle id="evehicle_1_256" type="evehicle" depart="21287.00" departLane="best">
        <route edges="119 595#0 596#0 596#1 596#2 596#3 580#0 580#1 580#2 450#0 450#2 450#4 450#5 450#6 450#7 450#8 450#9 371#3 371#4 371#5 255#0 255#2 368 366#1"/>
    </vehicle>
    <vehicle id="evehicle_1_404" type="evehicle" depart="21333.00" departLane="best">