<?xml version="1.0" encoding="UTF-8"?>

<!--
    Monaco SUMO Traffic (MoST) Scenario
    Copyright (C) 2018
    Lara CODECA

    This program is free software: you can redistribute it and/or modify
    it under the terms of the GNU General Public License as published by
    the Free Software Foundation, either version 3 of the License, or
    (at your option) any later version.

    This program is distributed in the hope that it will be useful,
    but WITHOUT ANY WARRANTY; without even the implied warranty of
    MERCHANTABILITY or FITNESS FOR A PARTICULAR PURPOSE.  See the
    GNU General Public License for more details.

    You should have received a copy of the GNU General Public License
    along with this program.  If not, see <http://www.gnu.org/licenses/>.
-->

<routes xmlns:xsi="http://www.w3.org/2001/XMLSchema-instance" xsi:noNamespaceSchemaLocation="http://sumo.dlr.de/xsd/routes_file.xsd">
    <vehicle id="other_1_587" type="trailer" depart="18011.00" departLane="best">
        <route edges="-583#0 629#0 -615#2 -615#1 -615#0 -575#0 -604#5 594#0 594#1 -590#6 -590#5 -590#4 -590#3 -590#2 -590#1 -590#0 268#1 268#2 -532#1 -532#0 -117 510#0 510#1"/>
    </vehicle>
    <vehicle id="other_1_373" type="delivery" depart="18128.00" departLane="best">
        <route edges="122 873#0 873#1 -741#11 -741#10 -741#9 -741#8 -741#7 -741#6 -741#5 -741#4 -741#3 -763#6 -763#5 -763#4 -763#3 -763#2 -763#1 -763#0 -1383#4 -1383#3 -1383#2"/>
    </vehicle>
    <vehicle id="other_1_583" type="truck" depart="18158.00" departLane="best">
        <route edges="454#1 15#2 15#3 15#4 15#5 15#6 15#7 -17 222#4 213 216#3 -208 890#5 890#6 890#7 890#8 -752#1 -752#0 -1491#3 -1491#2 -1491#1 -1491#0 -899#1 -754#1 -754#0 1495#1 1495#2 798#0 798#1 798#2 798#3 798#4"/>
    </vehicle>
    <vehicle id="other_GW1_213" type="emergency" depart="18164.00" departLane="best">
        <route edges="1417 207 855 156 1416#0 1416#1 205 1274 206 -1415#27 -1415#26 -1415#25 -1415#24 -1415#23 -1415#21 -1415#20 -1415#19 -1415#18 -1415#17 -1415#16 -1415#13 -1415#12 -1415#11 -1415#10 -1415#9 -1415#8 -1415#7 -1415#6 -1415#5 -1415#3 -1415#2 -1415#1 -1415#0 326 173 327#0 327#1 212 222#3 222#4 213 216#3 -208 -758#2 732#1 710#0 710#1 293#2 293#3"/>
    </vehicle>
    <vehicle id="other_1_791" type="trailer" depart="18193.00" departLane="best">
        <route edges="292 -92 373 215 216#2 216#3 -208 890#5 890#6 890#7 890#8 -752#1 -752#0 -1491#3 -1491#2 -1491#1 -1491#0 -899#1 -899#0 874#0 874#1 874#2 127 628#0 628#1 628#2 -633#3 -633#2 -633#1 -633#0 -931 -1497#3 -1497#2 -1497#1 -1497#0 1343#1 1343#2 1343#3 1343#4 1343#5 1343#6 1343#7 1343#8 935#1 1266 1376 739#5 741#8"/>
    </vehicle>
    <vehicle id="other_3_237" type="emergency" depart="18197.00" departLane="best">
        <route edges="160 1572 175 433 94 430#0 442 480 426#3 426#4 1320#0 1320#1 1320#2 1320#3 1320#4 1320#5 1320#6 1320#7 1322#2 1322#3 1322#4 -145 1308#0 1308#1 144 486 210#0 210#1 -1311#4 -1311#3 -1311#2 1419#0 1419#1 1419#2 1419#3 1419#4 1419#5 1419#6 1419#7 108 -1317#2 -1317#1 -1317#0 110 -501#1 249#0 249#1 -502#1 -502#0 -112 -510#3 -510#2 -510#1"/>
        <stop parkingArea="152526" duration="43200.00"/>
    </vehicle>
    <vehicle id="other_GW1_227" type="truck" depart="18244.00" departLane="best">
        <route edges="441#0 445 183 448 90 230 89 232#0 232#1 191 782 96 452 301 1589 234#0 234#1 234#2 234#3 234#4 234#5 234#6 234#7 234#8 234#9 234#10 306#1 306#2 829#0 829#1 919 741#0 741#1 741#2 741#3 741#4 741#5 741#6 741#7 741#8 741#9 741#10 741#11 686 123 712#0 746 874#2 127 628#0 694#0 694#1 694#2 694#3 643 591 -702#2 -599#2 -599#1 -575#0 -604#5 -604#4 -604#3 -604#2 -604#1 -604#0 597 580#1 580#2 450#0 450#2 450#4 450#5 450#6 534 539 451#2"/>
    </vehicle>
    <vehicle id="other_1_550" type="emergency" depart="18299.00" departLane="best">
        <route edges="798#1 798#2 798#3 -759#6 -759#5 -759#4 -759#3 -759#2 -759#1 -759#0 -918#1 -918#0 -722#1 735 889#2 889#3 -744#3 -744#2 -744#1 -744#0 -703 788 790 789 -817 813 812 809 810 872 808#0 808#1 805 797 791 796 864"/>
    </vehicle>
    <vehicle id="other_1_711" type="truck" depart="18304.00" departLane="best">
        <route edges="294 743#1 743#2 743#3 758#0 758#1 758#2 208 216#0 174 331 373"/>
    </vehicle>
    <vehicle id="other_1_47" type="delivery" depart="18324.00" departLane="best">
        <route edges="-739#3 -739#2 -739#1 -739#0 -1380#0 -1384#1 -1384#0 935#1 936 740 741#9 741#10 741#11 686 123 712#0 712#1"/>
    </vehicle>
    <vehicle id="other_2_156" type="truck" depart="18385.00" departLane="best">
        <route edges="355 -1427#0 118 -563 1505#1 1259#0 1259#1 1259#2 1259#3 1259#4 1259#5 1259#6 1259#7 1259#8 1259#9 1259#10 1259#11 1259#12 -1267#7 -1267#6 -1267#5 -1267#4 -1267#3 -1267#2 -1267#1 -1267#0 -1383#0 -1380#3 -1380#2 -1380#1 1382 739#1 739#2 739#3 739#4 739#5 741#8 728 709 1495#2 1495#3 754#0 754#1 899#1 1491#0 1491#1 1491#2 1491#3 752#0 752#1 890#11 889#1 889#2 -748#2 -748#0 15#6 15#7 -17 222#4 213 216#3 -208 -758#2 732#1 710#0 725 -711#0"/>
    </vehicle>
    <vehicle id="other_GW2_139" type="emergency" depart="18427.00" departLane="best">
        <route edges="-902 -97 -460 99 461 -101 -465 -102 -474 -107 -497#1 494#1 494#2 -908 -549#1 -549#0 -1363#1 661#0 -663#2 -663#1 -663#0 1330#0 1330#1 1505#0 1505#1 1259#0 1259#1 1259#2 1259#3 1259#4 1259#5 1259#6 1259#7 1259#8 1259#9 1259#10 1259#11 1259#12 -1267#7 -1267#6 -1267#5 -1267#4 -1267#3 -1267#2 -1267#1 -1267#0 1383#2 1383#3 1383#4 763#0 763#1 -298 -763#2 -763#1"/>
    </vehicle>
    <vehicle id="other_2_42" type="emergency" depart="18434.00" departLane="best">
        <route edges="1418#8 1418#9 1418#11 234#3 234#4 234#5 234#6 234#7 234#8 234#9 234#10 306#1 306#2 829#0 829#1 919 741#0 741#1 741#2 741#3 741#4 741#5 741#6 741#7 741#8 741#9 741#10 741#11 686 123 712#0 746 874#2 127 628#0 628#1 628#2 628#3 628#4 405#0 405#1"/>
    </vehicle>
    <vehicle id="other_3_534" type="trailer" depart="18500.00" departLane="best">
        <route edges="1416#1 205 1274 206 -1415#27 -1415#26 -1415#25 -1415#24 -1415#23 -1415#21 -1415#20 -1415#19 -1415#18 -1415#17 -1415#16 -1415#13 -1415#12 -1415#11 -1415#10 -1415#9 -1415#8 -1415#7 -1415#6 -1415#5 -1415#3 -1415#2 -1415#1 -1415#0 326 173 327#0 327#1 212 222#3 222#4 213 216#3 -208 890#5 890#6"/>
    </vehicle>
    <vehicle id="other_GW1_48" type="delivery" depart="18519.00" departLane="best">
        <route edges="431 159 1574 160 1572 175 433 94 430#0 442 480 426#3 426#4 1320#0 1320#1 1320#2 1320#3 1320#4 1320#5 1320#6 1320#7 -1322#1 -1322#0 -149 -1324#1 -1324#0 -150 -1351#5 -1261#5 -1261#4 -1263#11 -1263#10 -1263#9 -1263#8 -1263#7 -1263#6 -1263#5 -1263#4 -1263#2 -1263#1 -1263#0 -1354#1 -1354#0 1352#14 1352#15 1352#16 929 931 633#0 633#1 633#2 633#3 -628#2 -628#1 -628#0 122 873#0 720 712#2 899#0 899#1 1491#0 1491#1 1491#2 1491#3 752#0 752#1 890#11 889#1 889#2 -748#2 753"/>
    </vehicle>
    <vehicle id="other_GW1_215" type="truck" depart="18526.00" departLane="best">
        <route edges="431 159 1574 160 1572 175 433 94 430#0 442 480 426#3 426#4 1320#0 1320#1 1320#2 1320#3 1320#4 1320#5 1320#6 1320#7 -1322#1 -1322#0 -149 -1324#1 -1324#0 -150 -1351#5 -1261#5 -1261#4 -1263#11 -1263#10 -1263#9 -1263#8 -1263#7 -1263#6 -1263#5 -1263#4 -1263#2 -1263#1 -1263#0 -1354#1 -1354#0 1352#14 1352#15 1352#16 929 931 633#0 633#1 633#2 633#3 707 694#2 -466 -869#2 -869#1 -869#0 121 731 737#1 737#2 868#2 868#3 747 890#1 890#2 890#3 890#4 890#5 890#6 890#7 890#8 -752#1 -752#0"/>
    </vehicle>
    <vehicle id="other_1_185" type="emergency" depart="18535.00" departLane="best">
        <route edges="899#0 899#1 1491#0 1491#1 1491#2 1491#3 752#0 752#1 890#11 889#1 889#2 -748#2 -748#0 15#6 15#7 15#0 16 898 -173 -326 10 329"/>
    </vehicle>
    <vehicle id="other_2_638" type="delivery" depart="18634.00" departLane="best">
        <route edges="1326#3 1326#4 -553#0 -1323#5 -1323#4 -1323#3 -1323#2 -1323#1 -1323#0 148 1325 -1322#0 -149 -1324#1 -1324#0 -150 -1351#5 -1261#5 -1261#4 -1263#11 -1263#10 -1263#9 -1263#8 -1263#7 -1263#6 -1263#5 -1263#4 -1263#2 -1263#1 -1263#0 -1354#1 -1354#0 1352#14 1352#15 1352#16 929 931 633#0 633#1 633#2 633#3 707 694#2 -466 -869#2 -869#1 -869#0 121 731 737#1 737#2 868#2 868#3 747 890#1 890#2 890#3 890#4 208 216#0 174 331 92 -292"/>
    </vehicle>
    <vehicle id="other_2_584" type="coach" depart="18693.00" departLane="best">
        <route edges="-1431#2 -1431#1 -1431#0 1319#5 513#1 513#2 505#2 505#3 505#4 362#2 362#3 362#4 -361 -116 -530#3 -530#2 -530#1 -530#0 -593#10 -593#9 -593#8 -593#7 -593#6 -593#5 -593#4 641#1 641#2 641#3 -628#5 -628#4 -628#3 -628#2 -628#1 -628#0 122 873#0 873#1 -741#11 -875#2 -875#1 -875#0 1495#1 1495#2 798#0 798#1 798#2 798#3 798#4 798#5 -204 -827#2 -827#1 -827#0 309#0 309#2 827#0 827#1 827#2 204"/>
    </vehicle>
    <vehicle id="other_1_103" type="trailer" depart="18719.00" departLane="best">
        <route edges="-723#1 -723#0 718#1 -899#0 874#0 874#1 874#2 127 122 873#0 720 712#2"/>
    </vehicle>
    <vehicle id="other_2_248" type="trailer" depart="18728.00" departLane="best">
        <route edges="-1267#2 -1267#1 -1267#0 -1383#0 -1380#3 -1380#2 -1380#1 1382 739#1 739#2 739#3 739#4 739#5 741#8 741#9 741#10 741#11 686 123 712#0 746 874#2 127 628#0 628#1 628#2 628#3 628#4 628#5 630 632#0 632#1 605 458 572#0 572#1 572#2 1344#0 1344#1 1344#2 1344#3 1345#0 1345#1 1345#2 870"/>
    </vehicle>
    <vehicle id="other_2_379" type="delivery" depart="18786.00" departLane="best">
        <route edges="814#1 914 913#3 -828#1 -815#2 -815#1 -815#0 826#0 826#1 826#2 -202 784 15#3 15#4 15#5 15#6 15#7 -17 222#4 213 216#3 -208 890#5 890#6 890#7 890#8 -752#1 -752#0 -1491#3 -1491#2 -1491#1 -1491#0 -899#1 -899#0 874#0 874#1 874#2 127 122 873#0 873#1 -741#11 -741#10"/>
    </vehicle>
    <vehicle id="other_3_424" type="emergency" depart="18807.00" departLane="best">
        <route edges="191 782 96 452 301 1589 234#0 234#1 234#2 234#3 234#4 234#5 234#6 234#7 234#8 -938#3 -938#2 -938#1 -938#0 -827#1 -827#0 867#0 867#1 867#2 327#1 212 222#3 222#4 213 216#3 -208 -758#2"/>
    </vehicle>
    <vehicle id="other_2_334" type="delivery" depart="18837.00" departLane="best">
        <route edges="-1418#6 -1418#5 -1418#4 -1418#3 -1418#2 -1418#1 -1418#0 -1415#26 -1415#25 -1415#24 -1415#23 847#0 -850 942#1 1415#24 1415#25 1415#26 1418#0 1418#1 1418#2 1418#3 1418#4 1418#5 1418#6 1418#7 1418#8 1418#9 1418#11 234#3 234#4 234#5 234#6 234#7 234#8 -938#3 -938#2 -938#1 -938#0"/>
    </vehicle>
    <vehicle id="other_3_403" type="trailer" depart="18865.00" departLane="best">
        <route edges="138 459 922#1 467 -924 -1433 -1296#2 -1293#2 -1293#1 -1293#0 -1298#1 -1298#0 862#3 862#0 862#1 -1255#4 -1255#3 -1255#2 -1255#1 -1255#0 -1304#4 -1304#3 -1304#2 -478#1 -478#0 104 1498 -379#0 900#1 500#2 500#3 500#4 23 1314#1 1314#2 109 366#0 366#1 366#2 371#1 451#0 451#1 451#2 526 527 450#6 534 524"/>
    </vehicle>
    <vehicle id="other_2_862" type="emergency" depart="18905.00" departLane="best">
        <route edges="-264 1430#2 1430#3 1430#4 1430#5 1326#0 1326#1 1326#2 -553#1 -553#0 -1323#5 -1323#4 -1323#3 -1323#2 -1323#1 -1323#0 148 1325 -1322#0 -149 -1324#1 -1324#0 -150 -1351#5 -1261#5 -1261#4 -1263#11 -1263#10 -1263#9 -1263#8 -1263#7 -1263#6 -1263#5 -1263#4 -1263#2 -1263#1 -1263#0 -1354#1 -1354#0 1352#14 1352#15 1352#16 929 931 633#0 633#1 633#2 633#3 628#3 628#4 628#5 630 631 583#0 583#1 583#2 -604#5 594#0 594#1 -590#6 -590#5 -590#4 -590#3 -590#2 -590#1 -590#0 268#1 268#2 -532#1 -532#0 -117"/>
    </vehicle>
    <vehicle id="other_3_306" type="coach" depart="18926.00" departLane="best">
        <route edges="-98 1285 467 -924 -1433 -1296#2 -1293#2 -1293#1 -1293#0 -1298#1 -1298#0 862#3 862#0 -479#6 -479#5 -479#3 -479#2 -479#1 -479#0 1311#1 1419#0 1419#1 1419#2 1419#3 1419#4 1419#5 1419#6 1419#7 508#1 254 505#0 505#1 505#2 505#3 505#4 362#2 362#3 362#4 -361 -116 -530#3 -530#2 -530#1 -530#0 -593#10 -593#9 -593#8 -593#7 -593#6 -593#5 -593#4 641#1 641#2 641#3 -628#5 -628#4 -628#3 -628#2 -628#1 -628#0 122 873#0 873#1 -741#11 -741#10 -741#9 -741#8 -741#7 -741#6 -741#5 -741#4 -741#3 -763#6 -763#5 -757#2 -757#1"/>
    </vehicle>
    <vehicle id="other_1_652" type="emergency" depart="18941.00" departLane="best">
        <route edges="-741#5 -741#4 -741#3 -741#2 824 741#1 741#2 741#3 741#4 741#5 741#6 741#7 741#8 741#9 741#10 741#11 686 123 712#0 746 874#2"/>
    </vehicle>
    <vehicle id="other_1_321" type="truck" depart="18961.00" departLane="best">
        <route edges="595#1 268#2 268#3 268#0 268#1 -595#1 -595#0 -119 -189 -193 -688 -194 -727 -195 -721 196 292 -92 373 215 216#2 -213 222#1 221 -826#2 -826#1 -826#0 1503 906#2 906#3 906#4 811#0 811#1 811#2 802#5 802#0 802#1 802#2 1586"/>
    </vehicle>
    <vehicle id="other_3_73" type="delivery" depart="18965.00" departLane="best">
        <route edges="-97 -460 99 461 -101 -465 -102 -474 -107 -497#1 494#1 494#2 -908 -549#1 -549#0 -1363#1 661#0 -663#2 -663#1 -663#0 1330#0 1330#1 1505#0 1505#1 1505#2 1331 1326#1 1326#2 -553#1 -553#0 -1323#5 -1323#4 -1323#3 -1323#2 -1323#1 -1323#0 148 1325 -1322#0 -149 -1324#1 -1324#0 -150 -1351#5 -1261#5 -1261#4 -1263#11 -1263#10 -1263#9 -1263#8 -1263#7 -1263#6 -1263#5 -1263#4 -1263#2 -1263#1 -1263#0 -1354#1 -1354#0 1352#14 1352#15 1352#16 929 931 633#0 633#1 633#2 633#3 707 694#2 -466 -869#2 -869#1 -869#0 121 731 737#1 737#2 868#2 868#3 868#4"/>
    </vehicle>
    <vehicle id="other_GW1_298" type="emergency" depart="19008.00" departLane="best">
        <route edges="431 159 1574 160 1572 175 433 94 430#0 442 480 426#3 426#4 1320#0 1320#1 1320#2 1320#3 1320#4 1320#5 1320#6 1320#7 -1322#1 -1322#0 -149 -1324#1 -1324#0 -150 -1351#5 -1261#5 -1261#4 -1263#11 -1263#10 -1263#9 -1263#8 -1263#7 -1263#6 -1263#5 -1263#4 -1263#2 -1263#1 -1263#0 -1354#1 -1354#0 1352#14 1352#15 1352#16 929 931 633#0 633#1 633#2 633#3 628#3 628#4 628#5 630 631 583#0 583#1 583#2 -604#5 594#0 594#1 -590#6 -590#5 -590#4"/>
    </vehicle>
    <vehicle id="other_1_181" type="delivery" depart="19075.00" departLane="best">
        <route edges="-757#2 -757#1 -757#0 -1380#1 1382 739#1 739#2 739#3 739#4 739#5 741#8 741#9 741#10 741#11 686 123 712#0 746 874#2 127 628#0 694#0 694#1 694#2 694#3 643 591 -702#2 -599#2 -599#1 -575#0 -604#5 -604#4"/>
    </vehicle>
    <vehicle id="other_2_446" type="coach" depart="19112.00" departLane="best">
        <route edges="-1291 141 1289 1290 140 -1301#1 1299#0 1299#1 100 1258#0 1258#1 1258#2 1258#3 1258#4 1311#1 1419#0 1419#1 1419#2 1419#3 1419#4 1419#5 1419#6 1419#7 508#1 254 505#0 505#1 505#2 505#3 505#4 362#2 362#3 362#4 -361 -116 -530#3 -530#2 -530#1 -530#0 -593#10 -593#9 -593#8 -593#7 -593#6 -593#5 -593#4 641#1 641#2 641#3 -628#5 -628#4 -628#3 -628#2 -628#1 -628#0 122 873#0 873#1 -741#11 -875#2 -875#1 -875#0 1495#1"/>
    </vehicle>
    <vehicle id="other_1_226" type="emergency" depart="19228.00" departLane="best">
        <route edges="-757#0 -1380#1 1382 739#1 739#2 739#3 739#4 739#5 741#8 728 709 1495#2 1495#3 1495#1 -709"/>
    </vehicle>
    <vehicle id="other_1_318" type="truck" depart="19352.00" departLane="best">
        <route edges="222#3 222#4 213 216#3 -208 -758#2 -758#1 -758#0 743#4 743#5 868#0 868#1 -737#2 -737#1 -737#0 702#0 -287 591 -702#2"/>
    </vehicle>
    <vehicle id="other_1_896" type="trailer" depart="19496.00" departLane="best">
        <route edges="712#2 899#0 -754#1 -754#0 1495#1 1495#2 798#0 798#1 798#2 798#3 798#4 798#5 -204 -827#2 -827#1 -827#0 309#0 -940#7 -940#6"/>
    </vehicle>
    <vehicle id="other_GW1_342" type="emergency" depart="19514.00" departLane="best">
        <route edges="431 159 1574 160 1572 175 433 94 430#0 442 480 426#3 426#4 1320#0 1320#1 1320#2 1320#3 1320#4 1320#5 1320#6 1320#7 -1322#1 -1322#0 -149 -1324#1 -1324#0 -150 -1351#5 -1261#5 -1261#4 -1263#11 -1263#10 -1263#9 -1263#8 -1263#7 -1263#6 -1263#5 -1263#4 -1263#2 -1263#1 -1263#0 -1354#1 -1354#0 1352#14 1352#15 1352#16 929 931 633#0 633#1 633#2 633#3 -628#2 -628#1 -628#0 122 873#0 720 712#2 899#0 899#1 1491#0 1491#1 1491#2 1491#3 752#0 752#1 890#11 889#1 889#2 889#3 -744#3 -744#2 -744#1 -744#0 -703 690 -699 -700 701 -687 -690"/>
    </vehicle>
    <vehicle id="other_3_100" type="truck" depart="19528.00" departLane="best">
        <route edges="-1416#1 -831 1397#1 937#0 937#1 128 1270 1589 234#0 234#1 234#2 234#3 234#4 234#5 234#6 234#7 234#8 234#9 234#10 306#1 306#2 829#0 829#1 919 741#0 741#1 741#2 741#3 741#4 741#5 741#6 741#7 741#8 741#9 741#10 741#11 686 123 712#0 746 874#2 127 628#0 628#1 628#2 -633#3 -633#2 -633#1 -633#0 -931 -929 -1352#16 -1352#15 -1352#14 -1352#13 -1352#12 -1352#11 -1352#10 -1352#9 -1352#8 -1352#7 -1352#6 -1352#5 -1352#4 -1352#3 -1352#1 -1352#0 1338#0 -928#8"/>
    </vehicle>
    <vehicle id="other_3_179" type="trailer" depart="19530.00" departLane="best">
        <route edges="1276 -1275 -1280#0 922#1 467 -924 -1433 -1296#2 -1293#2 -1293#1 -1293#0 -1298#1 -1298#0 862#3 862#0 -479#6 -479#5 -479#3 -479#2 -479#1 -479#0 1311#1 1419#0 1419#1 1419#2 1419#3 1419#4 1419#5 1419#6 1419#7 508#1 254 505#0 505#1 505#2 505#3 505#4 362#2 362#3 362#4 -361 -116 -530#3 -530#2 -530#1 -530#0 -593#10 -593#9 -593#8 -593#7 -593#6 -593#5 -593#4 -593#3 -593#2 -593#1 629#0 629#1 -702#5 -702#4 -702#3 -702#2 -702#0 737#0 737#1 737#2 868#2 868#3 747 890#1 890#2 890#3 890#4 890#5 890#6 890#7 890#8 890#11 889#1 889#2 889#3 889#4 706 745#0 745#1 745#2 745#3 295#0 295#1 704 288 226"/>
    </vehicle>
    <vehicle id="other_1_686" type="truck" depart="19538.00" departLane="best">
        <route edges="1338#0 -928#8 -928#7 -928#6 -928#5 -928#4 -928#3 -928#2 -928#0 -1263#4 -1263#2 -1263#1 -1263#0 -1354#1 -1354#0 1352#14 1352#15 1352#16 929 931 633#0 633#1 633#2 633#3 -628#2 -628#1 -628#0 122 873#0 873#1 686 123 712#0"/>
    </vehicle>
    <vehicle id="other_GW2_102" type="coach" depart="19587.00" departLane="best">
        <route edges="1604 186 -476 -1296#2 -1293#2 -1293#1 -1293#0 -1298#1 -1298#0 862#3 862#0 -479#6 -479#5 -479#3 -479#2 -479#1 -479#0 1311#1 1419#0 1419#1 1419#2 1419#3 1419#4 1419#5 1419#6 1419#7 508#1 254 505#0 505#1 505#2 505#3 505#4 362#2 362#3 362#4 -361 -116 -530#3 -530#2 -530#1 -530#0 -593#10 -593#9 -593#8 -593#7 -593#6 -593#5 -593#4 -594#2 -594#1 -594#0 -604#4 -604#3"/>
    </vehicle>
    <vehicle id="other_1_726" type="delivery" depart="19620.00" departLane="best">
        <route edges="-380#0 873#0 873#1 686 123 712#0 746 874#2 127 628#0 694#0 694#1 694#2 694#3 643 591 -702#2 -599#2 -599#1 -575#0 -604#5 -604#4 -604#3 -604#2 -604#1 -604#0 597 580#1 580#2 450#0 450#2 450#4 450#5 450#6 534 539 451#2"/>
    </vehicle>
    <vehicle id="other_3_83" type="delivery" depart="19662.00" departLane="best">
        <route edges="1395#5 1395#6 939#6 314 1584#1 894 301 1589 234#0 234#1 234#2 234#3 234#4 234#5 234#6 234#7 234#8 234#9 234#10 306#1 306#2 829#0 829#1 224 310 10 329 823#2 -219 -904 913#0 913#1 -914 801#0 801#1 801#2 304#0 304#1 -304#4 302 304#3"/>
    </vehicle>
    <vehicle id="other_1_684" type="truck" depart="19711.00" departLane="best">
        <route edges="1267#1 1267#2 1267#3 1267#4 1267#5 1267#6 1267#7 -1259#12 -1259#11 -1259#10 -1259#9 -969 1259#11 1259#12 -1267#7 -1267#6 -1267#5 -1267#4 -1267#3 -1267#2 -1267#1 -1267#0 -1383#0 -1380#3 -1380#2 -1380#1 1382 739#1 739#2 739#3 739#4 739#5 741#8 741#9 741#10 741#11 686 123 712#0 746 874#2 127 122 380#0"/>
    </vehicle>
    <vehicle id="other_3_489" type="emergency" depart="19832.00" departLane="best">
        <route edges="461 -101 -465 -102 -474 -107 -497#1 494#1 494#2 -908 -549#1 -549#0 -1363#1 661#0 -663#2 -663#1 -663#0 1330#0 1330#1 1505#0 1505#1 1259#0 1259#1 1259#2 1259#3 1259#4 1259#5 1259#6 1259#7 1259#8 1259#9 1259#10 1259#11 1259#12 -1267#7 -1267#6 -1267#5 -1267#4 -1267#3 -1267#2 -1267#1 -1267#0 -1383#0 -1380#3 -1380#2 -1380#1 1382 739#1 739#2 739#3 739#4 739#5 741#8 728 709 1495#2 798#0 798#1 798#2 798#3 -759#6 -759#5 -759#4 -759#3 -759#2 -759#1 -759#0 -918#1 -918#0"/>
    </vehicle>
    <vehicle id="other_1_221" type="truck" depart="19835.00" departLane="best">
        <route edges="292 -92 373 215 216#2 216#3 -208 -758#2 -758#1 -758#0 743#4 743#5 868#0 868#1 -737#2 -737#1 -737#0 702#0 702#2 702#3 702#4 702#5 -629#1 -629#0 593#1 593#2 593#3 593#4 593#5 593#6 593#7 593#8 593#9 593#10 593#11 530#1 530#2 525"/>
    </vehicle>
    <vehicle id="other_3_299" type="coach" depart="19841.00" departLane="best">
        <route edges="1391#1 1391#2 1390#1 1390#2 1390#3 1390#4 1395#0 1395#1 1395#2 1395#3 1395#4 1395#5 1395#6 939#6 314 1584#1 894 301 1589 234#0 234#1 234#2 234#3 234#4 234#5 234#6 234#7 234#8 -938#3 -938#2 -938#1 -938#0 -827#1 -827#0 867#0 867#1 867#2 327#1 212 222#3 17 15#0 15#1 15#2 15#3 15#4 15#5 748#0 748#2 889#3 -744#3 -744#2 -744#1 -744#0 -703 788 790 787 -789"/>
    </vehicle>
    <vehicle id="other_2_687" type="emergency" depart="19854.00" departLane="best">
        <route edges="1412#4 1411#1 1411#2 1411#3 1409 942#0 850 -847#0 -1415#21 -1415#20 -1415#19 -1415#18 -1415#17 -1415#16 -1415#13 -1415#12 -1415#11 -1415#10 -1415#9 -1415#8 -1415#7 -1415#6 -1415#5 -1415#3 -1415#2 -1415#1 823#1 823#2 -219 -904 913#0 913#1 913#3 -828#1 -828#0 906#3 814#0 896#0 896#1 369#2 305#0 305#1 571"/>
    </vehicle>
    <vehicle id="other_3_574" type="emergency" depart="19873.00" departLane="best">
        <route edges="462 467 -924 -1433 -1296#2 -1293#2 -1293#1 -1293#0 -1298#1 -1298#0 862#3 862#0 -479#6 -479#5 -479#3 -479#2 -479#1 -479#0 1311#1 1419#0 1419#1 1419#2 1419#3 1419#4 1419#5 1419#6 1419#7 508#1 254 505#0 505#1 505#2 505#3 505#4 362#2 362#3 362#4 -361 -116 -530#3 -530#2 -530#1 -530#0 -593#10 -593#9 -593#8 -593#7 -593#6 -593#5 -593#4 641#1 641#2 641#3 -628#5 -628#4 -628#3 -628#2 -628#1 -628#0 122 380#0 -1378#2 -1378#1 -1378#0 901#5"/>
    </vehicle>
    <vehicle id="other_1_39" type="delivery" depart="19886.00" departLane="best">
        <route edges="371#3 371#4 371#5 371#0 371#1 451#0 451#1 451#2 451#3 451#4 451#6 451#8 580#4 596#3 596#4 185 -193 -688 -194 -727 -195 -721 196 292 -92 373 215 216#2 216#3 -208 890#5 890#6 890#7 890#8 890#11 889#1 889#2 889#3 -744#3 -744#2 -744#1 -744#0 -703 690 -699 -700 -786 -804"/>
    </vehicle>
    <vehicle id="other_1_642" type="delivery" depart="19911.00" departLane="best">
        <route edges="580#3 581 595#0 595#1 268#2 268#3"/>
    </vehicle>
    <vehicle id="other_GW1_410" type="emergency" depart="19920.00" departLane="best">
        <route edges="441#0 445 183 448 90 230 89 232#0 232#1 191 782 96 452 301 1589 234#0 234#1 234#2 234#3 234#4 234#5 234#6 234#7 234#8 -938#3 -938#2 -938#1 -938#0 -827#1 -827#0 867#0 867#1 867#2 327#1 212 222#3 17 15#0 15#1 15#2 15#3 15#4 15#5 748#0 748#2 889#3 889#4 706 745#0 745#1 745#2 745#3 745#4 296 716#0 716#1 755"/>
    </vehicle>
    <vehicle id="other_2_226" type="truck" depart="19921.00" departLane="best">
        <route edges="-1522#1 -1522#2 -950#2 1288#0 1288#1 1288#2 1288#3 1288#4 -1286#0 -142 -1291 141 1289 1290 140 -1301#1 1299#0 1299#1 100 1258#0 1258#1 1258#2 1258#3 1258#4 1311#1 1419#0 1419#1 1419#2 1419#3 1419#4 1419#5 1419#6 1419#7 508#1 254 505#0 505#1 505#2 505#3 505#4 362#2 362#3 362#4 -361 -116 -530#3 -530#2 -530#1 -530#0 -593#10 -593#9 -593#8 -593#7 -593#6 -593#5 -593#4 -593#3 -593#2 -593#1 629#0 629#1 -702#5 -702#4 -702#3 -702#2 -702#0 737#0 737#1 737#2 868#2 868#3 747 890#1 890#2 890#3 890#4 890#5 890#6 890#7 890#8 890#11 889#1 889#2 889#3 889#4 706 745#0 745#1 745#2 745#3 745#4 296 294"/>
    </vehicle>
    <vehicle id="other_1_863" type="emergency" depart="19934.00" departLane="best">
        <route edges="741#9 741#10 741#11 686 123 712#0 746 874#2 127 628#0 628#1 628#2 628#3 628#4 628#5 630 632#0 632#1 605 458 572#0 573#0 573#1 573#2 573#3 573#4 573#5 573#6 -427#1 -531#9 -531#8 -531#7 -866#4 -866#3 -866#2 -866#1 -866#0 871#0 871#1"/>
    </vehicle>
    <vehicle id="other_2_292" type="emergency" depart="19944.00" departLane="best">
        <route edges="901#2 901#3 901#4 901#5 740 -741#8 -741#7 -741#6 -741#5 -741#4 -741#3 -741#2 -741#1 -741#0 920 919"/>
    </vehicle>
    <vehicle id="other_2_233" type="emergency" depart="19954.00" departLane="best">
        <route edges="1419#0 1419#1 1419#2 1419#3 1419#4 1419#5 1419#6 1419#7 508#1 254 505#0 505#1 505#2 505#3 505#4 362#2 362#3 362#4 -361 -116 -530#3 -530#2 -530#1 -530#0 -593#10 -593#9 -593#8 -593#7 -593#6 -593#5 -593#4 -593#3 -593#2 -593#1 629#0 629#1 -702#5 -702#4 -702#3 -702#2 -702#0 737#0 737#1 737#2 868#2 868#3 747 890#1 890#2 890#3 890#4 208 216#0 216#1 216#2 -213 222#1 222#2 222#3 17 15#0 16 898 -173 -326 10 329 -823#1 -1415#0"/>
    </vehicle>
    <vehicle id="other_2_305" type="emergency" depart="19971.00" departLane="best">
        <route edges="861#1 861#2 861#3 -1338#1 -928#8 -928#7 -928#6 -928#5 -928#4 -928#3 -928#2 -928#0 -1263#4 -1349#9 -1349#8 -1349#7 -1349#6 -1349#5 -1349#4 -1349#3 -1349#2 -1349#1 -1349#0 1362#3 1362#4 154#0 154#1 -1379#6 -1379#5 -1379#4 -1379#3 -1379#2 -1379#1 -1379#0 1267#0 1267#1 1267#2 1267#3 1267#4 1267#5 1267#6 1267#7 -1259#12 -1259#11 -1259#10 -1259#9 -969 1259#11 1259#12 -1267#7 -1267#6 -1267#5 -1267#4 -1267#3 -1267#2"/>
    </vehicle>
    <vehicle id="other_2_824" type="trailer" depart="19989.00" departLane="best">
        <route edges="-1261#5 -1261#4 -1263#11 -1263#10 -1263#9 -1263#8 -1263#7 -1263#6 -1263#5 -1263#4 -1263#2 -1263#1 -1263#0 -1354#1 -1354#0 1352#14 1352#15 1352#16 929 931 633#0 633#1 633#2 633#3 628#3 628#4 405#0"/>
    </vehicle>
    <vehicle id="other_3_591" type="delivery" depart="19991.00" departLane="best">
        <route edges="229#0 318 447 232#1 191 782 96 452 301 1589 234#0 234#1 234#2 234#3 234#4 234#5 234#6 234#7 234#8 234#9 234#10 306#1 306#2 829#0 829#1 919 741#0 741#1 741#2 741#3 741#4 741#5 741#6 741#7 741#8 741#9 741#10 741#11 686 123 712#0 746 874#2 127 628#0 694#0 694#1 694#2 694#3 643 591 -702#2 -599#2 -599#1 -575#0 -604#5 594#0 592"/>
    </vehicle>
    <vehicle id="other_1_747" type="emergency" depart="20010.00" departLane="best">
        <route edges="750#3 719#0 719#1 -759#0 -918#1 -918#0 -899#5 -899#4 -899#3 -899#2 -899#1 -899#0 874#0 874#1 874#2 127 628#0 628#1 628#2 628#3 628#4 628#5 630 632#0 632#1 605 458 572#0 573#0 573#1 573#2 573#3 573#4 573#5 573#6 -427#1 -531#9 -531#8 -531#7 -866#4 -866#3 -866#2 -866#1 -866#0 895#0 895#1 223 -540#2"/>
    </vehicle>
    <vehicle id="other_2_155" type="emergency" depart="20016.00" departLane="best">
        <route edges="-1313#1 -1313#0 -133 -487#1 -487#0 1308#1 144 486 210#0 210#1 -1311#4 491 -1307#1 -1307#0 487#1 106 1313#0 1313#1 1313#2 1313#3 1313#4 1313#5 1313#6 1313#7 1313#8 1313#9 1313#10 1313#11 1313#12 1313#13 1313#14 861#1 861#2 861#3 -1338#1 -1338#0 574#0 574#1 574#2 574#3 574#4 574#5 1345#0 1345#1 1345#2 606 641#2 641#3 -628#5 -628#4 -628#3 -628#2 -628#1 -628#0 122 873#0 873#1 -741#11 -875#2 -875#1 -875#0 1495#1 1495#2 798#0 798#1 798#2 798#3 798#4 798#5 -204 -827#2 -827#1 -827#0 309#0"/>
    </vehicle>
    <vehicle id="other_1_477" type="truck" depart="20025.00" departLane="best">
        <route edges="877 793 -730 -726 -701 700 699 -690 703 744#0 744#1 744#2 744#3 889#4 889#0 889#1 889#2 -748#2 -748#0"/>
    </vehicle>
    <vehicle id="other_2_153" type="delivery" depart="20047.00" departLane="best">
        <route edges="940#5 940#6 940#7 309#2 867#0 867#1 867#2 327#1 212 222#3 222#4 222#1"/>
    </vehicle>
    <vehicle id="other_GW1_318" type="truck" depart="20069.00" departLane="best">
        <route edges="431 159 1574 160 1572 175 433 94 430#0 442 480 426#3 426#4 1320#0 1320#1 1320#2 1320#3 1320#4 1320#5 1320#6 1320#7 -1322#1 -1322#0 -149 -1324#1 -1324#0 -150 -1351#5 -1261#5 -1261#4 -1261#3 -1261#2 -1261#1 -1261#0 861#3 -1338#1 -1338#0 1352#0 1352#1 1352#3 1352#4 1352#5"/>
    </vehicle>
    <vehicle id="other_2_746" type="truck" depart="20076.00" departLane="best">
        <route edges="1422 1423#1 892 -1384#1 -1384#0 935#1 936 740 728 709 1495#2 1495#3 754#0 754#1 899#1 1491#0 1491#1 1491#2 1491#3 752#0 752#1 890#11 889#1 889#2 889#3 889#4 706 745#0 745#1 745#2 745#3 745#4 296 382 199 1588"/>
    </vehicle>
    <vehicle id="other_2_516" type="trailer" depart="20080.00" departLane="best">
        <route edges="-1297#1 -1297#0 -1298#1 -1298#0 862#3 862#0 -479#6 -479#5 -479#3 -479#2 -479#1 -479#0 1311#1 1419#0 1419#1 1419#2 1419#3 1419#4 1419#5 1419#6 1419#7 508#1 254 505#0 505#1 505#2 505#3 505#4 362#2 362#3 362#4 -361 -116 -530#3 -530#2 -530#1 -530#0 -593#10 -593#9 -593#8 -593#7 -593#6 -593#5 -593#4 -594#2 -594#1 -594#0 604#5 -575#2"/>
    </vehicle>
    <vehicle id="other_3_103" type="truck" depart="20109.00" departLane="best">
        <route edges="-1334 -151 -321#3 -321#2 -321#1 -321#0 320 352#1 -1374#3 -1374#2 -1374#1 -1374#0 -1390#5 1395#0 1395#1 1395#2 1395#3 1395#4 1395#5 1395#6 939#6 314 1584#1 894 301 1589 234#0 234#1 234#2 234#3 234#4 234#5 234#6 234#7 234#8 234#9 234#10 306#1 306#2 829#0 829#1 224 310 10 329 823#2 -219 -904 913#0 913#1 913#3 -828#1 -828#0 906#3 906#4 811#0 811#1 811#2 802#5 802#0 359"/>
        <stop parkingArea="152514" duration="43200.00"/>
    </vehicle>
    <vehicle id="other_2_188" type="delivery" depart="20115.00" departLane="best">
        <route edges="-938#1 -938#0 -827#1 -827#0 309#0 -940#7 -940#6 -940#5 -940#4 -940#3 -940#2 -940#1 -940#0 -1415#9 -1415#8 -1415#7 -1415#6 -1415#5 -1415#3 -1415#2 -1415#1 823#1 823#2 -219 -904 913#0"/>
    </vehicle>
    <vehicle id="other_3_422" type="delivery" depart="20135.00" departLane="best">
        <route edges="459 922#1 467 -924 -1433 -1296#2 -1293#2 -1293#1 -1293#0 -1298#1 -1298#0 862#3 862#0 -479#6 -479#5 -479#3 -479#2 -479#1 -479#0 1311#1 1419#0 1419#1 1419#2 1419#3 1419#4 1419#5 1419#6 1419#7 508#1 254 505#0 505#1 505#2 505#3 505#4 362#2 362#3 362#4 -361 -116 -530#3 -530#2 -530#1 -530#0 -593#10 -593#9 -593#8 -593#7 -593#6 -593#5 -593#4 -593#3 -593#2 -593#1 629#0 629#1 -702#5 -702#4 -702#3 -702#2 -702#0 737#0 737#1 737#2 868#2 868#3 747 890#1 732#0 732#1 732#2 -693#1 -693#0"/>
    </vehicle>
    <vehicle id="other_2_476" type="emergency" depart="20143.00" departLane="best">