<?xml version="1.0" encoding="UTF-8"?>

<!--
    Monaco SUMO Traffic (MoST) Scenario
    Copyright (C) 2018
    Lara CODECA

    This program is free software: you can redistribute it and/or modify
    it under the terms of the GNU General Public License as published by
    the Free Software Foundation, either version 3 of the License, or
    (at your option) any later version.

    This program is distributed in the hope that it will be useful,
    but WITHOUT ANY WARRANTY; without even the implied warranty of
    MERCHANTABILITY or FITNESS FOR A PARTICULAR PURPOSE.  See the
    GNU General Public License for more details.

    You should have received a copy of the GNU General Public License
    along with this program.  If not, see <http://www.gnu.org/licenses/>.
-->

<routes xmlns:xsi="http://www.w3.org/2001/XMLSchema-instance" xsi:noNamespaceSchemaLocation="http://sumo.dlr.de/xsd/routes_file.xsd">
    <vehicle id="special_1-2_210" type="special" depart="18010" departLane="best" arrivalPos="random">
        <route edges="13948 13931 13845 13844 -13835 13848 13889#0 13889#1 13889#2 13889#3 14033#5 13851 13890#0 13890#1 13890#2 13890#3 13890#4 13888#0 13888#1 13888#2 13888#3 13888#4 13888#5 14012#0 14012#1 -13882#2 -13882#1 -13876 14013#1 14013#2 13618 -13839#2 -13852 -13778#3 -13778#2 -13778#1 -13778#0 -14073 -14071 -14487#16 -14487#15 -14487#14 -14487#13 -14487#12 -14487#11"/>
    </vehicle>
    <vehicle id="special_1-1_276" type="special" depart="18036" departLane="best" arrivalPos="random">
        <route edges="13886#10 13886#11 13831 13300 13857#0 13891 14018#2 13304 13773#0 13839#0"/>
    </vehicle>
    <vehicle id="special_1-2_28" type="special" depart="18221" departLane="best" arrivalPos="random">
        <route edges="13360 13357 13726#1 13726#2 13726#3 13726#4 13742#3 13749#0 13749#1 13749#2 13749#3 13749#4 13749#5 13722#0 13744#1 13744#2 13847#2 -13737 -13788 -13839#3 -13839#2 -13839#1 -13839#0 -13773#0 13299 14017#0 14017#1 -13886#11 -13886#10 -13886#9 -13886#8 -13884#5 -13884#4 -13884#3 -13884#2 -13884#1 -13884#0 14515#1 14515#2 14515#3 -14514#0 14409#0 14409#1 14409#2 14409#3 14409#4 14409#5 14409#6 14409#7 -14401#12 -14401#11 14111"/>
    </vehicle>
    <vehicle id="special_1-3_36" type="special" depart="18231" departLane="best" arrivalPos="random">
        <route edges="13748#2 13544#0 13544#1 -13544#1 -13544#0 -13748#2 -13748#1 -13748#0 13749#4 13749#5 13722#0 13744#1 13744#2 -13847#0 13882#0 13882#1 13882#2 14012#2 14012#3 13892 14034#1 14034#2 14034#3 14034#4 13375 13383#0 13383#1 13383#2 -13380 13389#1 13389#2 -13379 13351 13602 -13401#7 -13401#6 -13401#5 -13401#4 -13401#3 -13401#2 -13401#1 -13401#0 14713 14710#1 14712#1 14076#0 14076#1 -14532#1 13975"/>
    </vehicle>
    <vehicle id="special_1-2_257" type="special" depart="18272" departLane="best" arrivalPos="random">
        <route edges="13360 13357 13726#1 13726#2 13726#3 13726#4 13742#3 13749#0 13749#1 13749#2 13749#3 13749#4 13749#5 13722#0 13744#1 13744#2 13847#2 -13737 -13788 -13839#3 -13839#2 -13852 -13778#3 -13778#2 -13778#1 -13778#0 -14073 -14071 -14487#16 -14487#15 -14487#14 14489#0 14489#1 14405#0 14405#1 14405#2 -14484#9 -14484#8 -14484#7 -14484#6 -14484#5 -14484#4 -14484#3 -14484#2 -14484#1 -14484#0 -14497#2 -14497#1 -14495#4 -14495#3 -14495#2 -14495#1 13442 -13442 14495#1 14495#2 14495#3"/>
    </vehicle>
    <vehicle id="special_3-1_345" type="special" depart="18342" departLane="best" arrivalPos="random">
        <route edges="13975 14551#1 13372 14416 13373 -14550#26 -14550#25 -14550#24 -14550#23 -14084#1 13994 -13991#0 -14550#20 -14550#19 -14550#18 -14550#17 -14550#16 -14550#15 -14550#14 -14550#13 -14550#12 -14550#11 -14550#10 -14550#9 -14550#8 -14550#7 -14550#6 -14550#5 -14550#3 -14550#2 -14550#1 -14550#0 13490 13340 13491#0 13491#1 13379 13389#3 13389#4 13380 13383#3 -13375 -13903#2 -13903#1 -13903#0 13888#4 13888#5 14012#0 14012#1 -13882#2 -13882#1 -13882#0 13847#0 13847#2 13847#3 13847#4 13847#5 -13774#1 -13774#0 13739#1 13739#2 13739#3 13786#0 13777#2 13750 13614 13719#0 13719#1 13719#2 14470#0 14470#1 14470#2 14470#3 14470#4 14085#0"/>
    </vehicle>
    <vehicle id="special_2-1_2" type="special" depart="18375" departLane="best" arrivalPos="random">
        <route edges="-13739#10 -13739#9 -13739#8 -13739#7 -13739#6 -13739#5 -13739#4 -13739#3 -13739#2 -13739#1 13774#0 13774#1 -13847#5 -13847#4 -13847#3 -13847#2 -13847#0 13882#0 13882#1 13882#2 14012#2 14012#3 13892 14034#1 14034#2 14034#3 14034#4 13375 13383#0 13383#1 13383#2 -13380 13389#1 13388 -13970#2 -13970#1 -13970#0 14048"/>
    </vehicle>
    <vehicle id="special_2-1_207" type="special" depart="18430" departLane="best" arrivalPos="random">
        <route edges="-14519#1 -14519#0 14077#1 14078 -14045#5 14513#0 14513#1 14513#2 13538#1 14017#0 13865 13857#2 13219 14043#0 14624#0 14624#1 14624#2 14624#3 13897#0 13897#1 14034#10 14033#2 14033#3 14033#4 -13889#3 -13889#2 -13889#1 -13889#0 -13848 13835 -13844 -13845 13846 13871 13875 -13878 -13860 -13940 -13935 -13941 -13949 -13952#2 -13952#1 -13952#0"/>
    </vehicle>
    <vehicle id="special_2-1_151" type="special" depart="18435" departLane="best" arrivalPos="random">
        <route edges="-14066 -14566 -14431#2 -14428#2 -14428#1 -14428#0 -14433#1 -14433#0 14006#3 14006#0 -13630#6 -13630#5 -13630#4 -13630#3 -13630#2 -13630#1 -13630#0 14446#1 14554#0 14554#1 14554#2 14554#3 14554#4 14554#5 14554#6 14554#7 13657#1 13421 13654#0 13654#1 13654#2 13654#3 13654#4 13526#2 13526#3 13526#4 -13525 -13293 -13221 -13677#2 -13677#1 -13677#0 -13739#10 -13739#9 -13739#8 -13739#7 -13739#6 -13739#5 -13739#4 -13739#3 -13739#2 -13739#1 13774#0 13774#1 -13847#5 -13847#4 -13847#3 -13847#2 -13847#0 13882#0 13882#1 13882#2 14012#2 14012#3 13892 14034#1 13877#0 -13903#1 -13903#0 13888#4 13888#5"/>
    </vehicle>
    <vehicle id="special_1-1_306" type="special" depart="18542" departLane="best" arrivalPos="random">
        <route edges="14512 13886#9 13886#10 13886#11 13831 13300 13857#0 13891 14018#2 13304 13773#0 13839#0 13839#1 13839#2 13839#3 13788 13737 -13847#2 -13847#0 -13842"/>
    </vehicle>
    <vehicle id="special_1-2_312" type="special" depart="18545" departLane="best" arrivalPos="random">
        <route edges="13418#0 13418#1 13607#0 13607#1 13607#2 13607#4 13607#6 13726#4 13742#3 13749#0 13749#1 13749#2 13749#3 13749#4 13740#0 13740#1 13740#2 13786#0 13777#2 13750 13614 13719#0 13720#0 13720#1 13720#2 13720#3 13720#4 13720#5"/>
    </vehicle>
    <vehicle id="special_2-1_244" type="special" depart="18578" departLane="best" arrivalPos="random">
        <route edges="14732 13353 -13627 -14431#2 -14428#2 -14428#1 -14428#0 -14433#1 -14433#0 14006#3 14006#0 -13630#6 -13630#5 -13630#4 -13630#3 -13630#2 -13630#1 -13630#0 14446#1 14554#0 14554#1 14554#2 14554#3 14554#4 14554#5 14554#6 14554#7 13657#1 13421 13654#0 13654#1 13654#2 13654#3 13654#4 13526#2 13526#3 13526#4 -13525 -13293 -13221 -13677#2 -13677#1 -13677#0 -13739#10 -13739#9 -13739#8 -13739#7 -13739#6 -13739#5 -13739#4 13786#0 13786#1 13786#2 -13773#5 -13773#4 -13773#3 -13773#2 -13773#1 -13773#0 13299 14017#0 14017#1 -13886#11 -14019#2 -14019#1 -14019#0 14627#1 14627#2 13942#0 13942#1 13942#2 13942#3 13942#4 13942#5 -13971#1 -13971#0"/>
    </vehicle>
    <vehicle id="special_1-2_198" type="special" depart="18585" departLane="best" arrivalPos="random">
        <route edges="-13654#0 13648 13289 13417#1 13291 13657#1 13421 13654#0 13654#1 13654#2 13654#3 13654#4 13526#2 13526#3 13526#4 -13525 -13293 -13221 13674 13679 13434#3 13434#0 13434#1 -13741#1 -13741#0 -13296 -13360 -13833 -13361 -13872 -13362 -13866 13363 13456 -13276 13533 13382 13383#2 -13380 13389#1 13388 -13970#2 -13970#1 -13970#0 14048 13959#1 -14633"/>
    </vehicle>
    <vehicle id="special_1-2_192" type="special" depart="18597" departLane="best" arrivalPos="random">
        <route edges="-14019#0 14627#1 14627#2 14627#3 14627#0 14019#0 14019#1 14019#2 13886#11 13831 13300 13857#0 13891 14018#2 13304 13773#0 13773#1 13773#2 13773#3 13773#4 13773#5 13775 13776 13739#1 13739#2 13739#3 13739#4 13739#5 13739#6 13739#7 13739#8 13739#9 13739#10 13739#11 13677#1 13677#2 13221 13293 13525 13526#1 -13654#4 -13654#3 -13654#2 -13654#1 -13654#0 13648 13289 13417#1 13291 -14554#7 -14554#6 -14554#5 -14554#4 -14554#3 -14554#2 -14554#1 -14554#0 -14446#1 -14400#4 -14400#3 -14400#2 -14400#1 -14400#0 -14434#0 14436#1 -13311 -14425 14559#0 14644"/>
    </vehicle>
    <vehicle id="special_1-2_268" type="special" depart="18605" departLane="best" arrivalPos="random">
        <route edges="-13933 -13932 13848 13889#0 13889#1 13889#2 13889#3 14033#5 14033#1 14033#2 14033#3 -13893#2 -13893#1 -13893#0 13189#6 13189#7 -13191 13389#4 13380 13383#3 -13375 14034#5 14034#6 14034#7 14034#8 -13897#1 -13897#0 -14624#3 -14624#2 -14624#1 -14624#0 -14043#0 13899#0 13899#1 14627#0 14627#1 -13854 -13873 -13886#8 -13884#5 -13884#4 -13884#3 -13884#2 -13884#1 -13884#0 14515#1 14515#2 14515#3 14514#1 14514#2 14514#3 14514#4 14514#5 14514#6 -13325#1 -13325#0 -14497#4 -14497#3 14484#0"/>
    </vehicle>
    <vehicle id="special_1-3_299" type="special" depart="18606" departLane="best" arrivalPos="random">
        <route edges="14472#1 14472#2 14472#3 14470#4 14085#0 14085#1 13721#1 13721#2 13721#3 13721#4 13721#5 14480#0 14480#1 14480#2 14014 13756 13786#2 -13773#5 -13773#4 -13773#3 -13773#2 -13773#1 -13773#0 13299 14017#0 13865 13857#2 13219 14043#0 14624#0 14624#1 14624#2 14624#3 13897#0 13897#1 14034#10 14033#2 14033#3 -13893#2 -13893#1 -13893#0 13189#6 13189#7 -13191 13389#4 13389#1 13389#2 -13379 13351 13602 -13401#7 -13401#6 -13401#5 -13401#4 -13401#3 -13401#2 -13401#1 -13401#0 14713 14710#1 14712#1 14076#0 14076#1 -14532#1 -14532#0"/>
    </vehicle>
    <vehicle id="special_1-2_44" type="special" depart="18616" departLane="best" arrivalPos="random">
        <route edges="13847#0 13847#2 -13737 -13788 -13839#3 -13839#2 -13839#1 -13839#0 -13773#0 13299 14017#0 14017#1 -13886#11 -13886#10 -13886#9 -13886#8 -13884#5 -13884#4 -13884#3 -13884#2 -13884#1 -13884#0 14515#1 14515#2 14515#3 -14514#0 14409#0 14409#1 14409#2 14409#3 14409#4 14409#5 13909"/>
    </vehicle>
    <vehicle id="special_3-1_266" type="special" depart="18638" departLane="best" arrivalPos="random">
        <route edges="14531 14533#1 14532#1 14079#0 14079#1 13305 14412 14717 13401#0 13401#1 13401#2 13401#3 13401#4 13401#5 13401#6 13401#7 13218 -14080#3 -14080#2 -14080#1 -14080#0"/>
    </vehicle>
    <vehicle id="special_2-1_173" type="special" depart="18694" departLane="best" arrivalPos="random">
        <route edges="-14431#0 -13309 -14067#1 -14067#0 14006#0 -13630#6 -13630#5 -13630#4 -13630#3 -13630#2 -13630#1 -13630#0 14446#1 14554#0 14554#1 14554#2 14554#3 14554#4 14554#5 14554#6 14554#7 13657#1 13421 13654#0 13654#1 13654#2 13654#3 13654#4 13526#2 13526#3 13526#4 -13525 -13293 -13221 -13677#2 -13677#1 -13677#0 -13739#10 -13739#9 -13739#8 -13739#7 -13739#6 -13739#5 -13739#4 13786#0 13786#1 13786#2 -13773#5 -13773#4 -13773#3 -13773#2 -13773#1 -13773#0 13299 14017#0 14017#1 -13886#11 -13886#10 -13886#9 -13886#8 -13886#7 -13886#6 -13886#5 -13886#4"/>
    </vehicle>
    <vehicle id="special_3-1_92" type="special" depart="18711" departLane="best" arrivalPos="random">
        <route edges="13975 14551#1 13372 14416 13373 -14550#26 -14550#25 -14550#24 -14550#23 -14084#1 13994 -13991#0 -14550#20 -14550#19 -14550#18 -14550#17 -14550#16 -14550#15 -14550#14 -14550#13 -14550#12 -14550#11 -14550#10 -14550#9 -14550#8 -14550#7 -14550#6 -14550#5 -14550#3 -14550#2 -14550#1 -14550#0 13490 13340 13491#0 13491#1 13379 13389#3 13389#4 13380 13383#3 -13375 14034#5 14034#6 14034#7 14034#8 -13897#1 -13897#0 -14624#3 -14624#2 -14624#1 -14624#0 -14043#0 -13219 14018#0 14018#1 14018#2 13304 13773#0 13773#1 13773#2 -13778#3 -13778#2 -13778#1 -13778#0 -14073 -14071 -14487#16 -14487#15 -14487#14 14489#0 14489#1 14405#0 14405#1 14405#2 14405#4 14070#0 14070#2 14070#3 14070#4 14070#5 14070#6 14070#7"/>
    </vehicle>
    <vehicle id="special_1-2_208" type="special" depart="18749" departLane="best" arrivalPos="random">
        <route edges="14016 13952#1 13952#2 13949 13941 13935 13940 14008 13878 -13875 -13871 -13846 13845 13844 -13835 13848 13889#0 13889#1 13889#2 13889#3 14033#5 13851 13890#0 13890#1 13890#2 13890#3 13890#4 13888#0 13888#1 13888#2 13888#3 13888#4 13888#5 14012#0 14012#1 -13882#2 -13882#1 -13876 14013#1 14013#2 13618 -13839#2 -13852 -13778#3 -13778#2 -13778#1 -13778#0 -14073 -14071 -14487#16 -14487#15 -14487#14 -14487#13 -14487#12 -14487#11 -14487#10 -14487#9 14725#0"/>
    </vehicle>
    <vehicle id="special_1-3_275" type="special" depart="18765" departLane="best" arrivalPos="random">
        <route edges="13782 13783#3 -13773#3 -13773#2 -13773#1 -13773#0 13299 14017#0 13865 13857#2 13219 14043#0 14624#0 14624#1 14624#2 14624#3 13897#0 13897#1 14034#10 14033#2 14033#3 -13893#2 -13893#1 -13893#0 13189#6 13189#7 -13191 13389#4 13389#1 13389#2 -13379 13351 13602 -13401#7 -13401#6 -13401#5 -13401#4 -13401#3 -13401#2 -13401#1 -13401#0 14713 14710#1 14712#1 14076#0 14076#1 -14532#1 -14532#0 -14531"/>
    </vehicle>
    <vehicle id="special_1-3_131" type="special" depart="18816" departLane="best" arrivalPos="random">
        <route edges="13678#8 13678#9 13585#1 13424#4 13424#1 13424#2 13425#0 13425#1 -13724#0 -13739#10 -13739#9 -13739#8 -13739#7 -13739#6 -13739#5 -13739#4 -13739#3 -13739#2 -13739#1 13774#0 13774#1 -13847#5 -13847#4 -13847#3 -13847#2 -13847#0 13882#0 13882#1 13882#2 14012#2 14012#3 13892 14034#1 14034#2 14034#3 14034#4 13375 13383#0 13383#1 13383#2 -13380 13389#1 13389#2 -13379 13351 13602 -13401#7 -13401#6 -13401#5 -13401#4 -13401#3 -13401#2 -13401#1 -13401#0 14713 14710#1 14712#1 14076#0 14076#1 -14532#1 -14532#0 -14531"/>
    </vehicle>
    <vehicle id="special_1-2_32" type="special" depart="18873" departLane="best" arrivalPos="random">
        <route edges="-14080#0 -13971#1 -13971#0 13473#0 13473#1 13473#2 13473#3 13971#0 13971#1 14080#0 14080#1 14080#2 14080#3 13220#0 13220#1 13470#1 13470#2 13470#3 -13963#1 -13963#0 13370 -13964#1 -13964#0 13908#0 13908#1 13908#2 13908#3"/>
    </vehicle>
    <vehicle id="special_2-1_319" type="special" depart="18875" departLane="best" arrivalPos="random">
        <route edges="13654#3 13654#4 13526#2 13526#3 13526#4 -13525 -13293 -13221 13674 13679 13434#3 13434#0 13434#1 -13741#1 -13741#0 -13296 -13360 -13833 -13361 -13872 -13362 -13866 13363 13456 -13276 13533 13382 13383#2 -13380 13389#1 13388 -13970#2 -13970#1 -13970#0 14635 14049#2 14049#3 14049#4 13955#0 13955#1 13955#2 13946#5 13946#0 13946#1 13947#0"/>
    </vehicle>
    <vehicle id="special_3-1_181" type="special" depart="18886" departLane="best" arrivalPos="random">
        <route edges="-14532#0 -14533#0 -13326 14534 -14534 13326 14533#0 14533#1 14532#1 14079#0 14079#1 13305 14412 14717 13401#0 13401#1 13401#2 13401#3 13401#4 13401#5 13401#6 13401#7 13218 13220#0 13220#1 13470#1 13470#2 13973#0 13973#1 14062 13886#0 13886#1 13886#2 13886#3 13886#4 13886#5 13886#6 13886#7 13886#8 13886#9 13886#10 13886#11 13831 13300 13857#0 13891 14018#2 13304 13773#0 13773#1 13773#2 13773#3 13773#4 13773#5 13775 13777#0 13777#1 13777#2 13750 13614 13719#0 13719#1 13719#2 14479#0 14479#1 14479#2 14479#3"/>
    </vehicle>
    <vehicle id="special_1-3_30" type="special" depart="18889" departLane="best" arrivalPos="random">
        <route edges="13886#6 13886#7 13886#8 13873 13854 14627#2 13942#0 13942#1 13942#2 13942#3 13942#4 13942#5 14080#0 14080#1 14080#2 14080#3 -13218 -13401#7 -13401#6 -13401#5 -13401#4 -13401#3 -13401#2 -13401#1 -13401#0 14713 14710#1 14712#1 14076#0 14076#1 -14532#1 -14532#0 -14533#0 -13326 14534 -14534 13326 14533#0 14533#1"/>
    </vehicle>
    <vehicle id="special_1-1_313" type="special" depart="18956" departLane="best" arrivalPos="random">
        <route edges="-13936 -13938 13961 -13933 -13932 13848 13889#0 13889#1 13889#2 13889#3 14033#5 14033#1 14033#2 14033#3 -13893#2 -13893#1 -13893#0 13189#6 13189#7 -13191 13389#4 13380 13383#3 -13375 14034#5 14034#6 14034#7 14034#8 -13897#1 -13897#0 -14624#3 -14624#2 -14624#1 -14624#0 -14043#0 -13219 14018#0 14018#1 14018#2 13304 13773#0 13839#0"/>
    </vehicle>
    <vehicle id="special_1-1_125" type="special" depart="18998" departLane="best" arrivalPos="random">
        <route edges="13607#4 13607#6 13726#4 13742#3 13742#4 13352 -13360 -13833 -13361 -13872 -13362 -13866 13363 13456 -13276 13533 13382 13383#2 13383#3 -13375 14034#5 14034#6 14034#7 14034#8 -13897#1 -13897#0 -14624#3 -14624#2 -14624#1 -14624#0 -14043#0 -13219"/>
    </vehicle>
    <vehicle id="special_3-1_186" type="special" depart="19009" departLane="best" arrivalPos="random">
        <route edges="13975 14551#1 13372 14416 13373 -14550#26 -14550#25 -14550#24 -14550#23 -14084#1 13994 -13991#0 -14550#20 -14550#19 -14550#18 -14550#17 -14550#16 -14550#15 -14550#14 -14550#13 -14550#12 -14550#11 -14550#10 -14550#9 -14550#8 -14550#7 -14550#6 -14550#5 -14550#3 -14550#2 -14550#1 -14550#0 13490 13340 13491#0 13491#1 13379 13389#3 13389#4 13380 13383#3 13383#0 13341 13495 13276 -13456 -13363 13866 13362 13872 13361 13833 13360 13357 13726#1 13726#2 13606#0 13606#2 13606#4 13606#5 13606#6 13606#7 13418#0"/>
    </vehicle>
    <vehicle id="special_1-3_250" type="special" depart="19029" departLane="best" arrivalPos="random">
        <route edges="-14487#4 -14487#3 -14487#1 -14487#0 13721#0 13721#1 13721#2 13721#3 13721#4 13721#5 14480#0 14480#1 14480#2 14014 13756 13786#2 -13773#5 -13773#4 -13773#3 -13773#2 -13773#1 -13773#0 13299 14017#0 13865 13857#2 13219 14043#0 14624#0 14624#1 14624#2 14624#3 13897#0 13897#1 14034#10 14033#2 14033#3 -13893#2 -13893#1 -13893#0 13189#6 13189#7 -13191 13389#4 13389#1 13389#2 -13379 13351 13602 -13401#7 -13401#6 -13401#5 -13401#4 -13401#3 -13401#2 -13401#1 -13401#0 14713 14710#1 14712#1 14076#0 14076#1 -14532#1 -14532#0 -14533#0 -13326 14534 -14534 13326 14533#0 14533#1"/>
    </vehicle>
    <vehicle id="special_2-1_304" type="special" depart="19043" departLane="best" arrivalPos="random">
        <route edges="13660 -13663#4 -13663#3 -13663#2 -13663#1 -13663#0 13663#0 13663#1 13663#2 13663#3 13663#4 13663#5 14005#2 14005#3 -14473#1 -14473#0 13721#0 13721#1 13721#2 13721#3 13721#4 13721#5 14480#0 14480#1 14480#2 14014 13756 13786#2 -13773#5 -13773#4 -13773#3 -13773#2 -13773#1 -13773#0 13299 14017#0 14017#1 -13886#11 -14019#2 -14019#1 -14019#0 14627#1 -13854"/>
    </vehicle>
    <vehicle id="special_1-1_11" type="special" depart="19051" departLane="best" arrivalPos="random">
        <route edges="-13469#3 -13469#2 -13469#1 -13469#0 13530#3 -13523 13946#1 13946#2 14714 13367#0 13367#0-AddedOffRampEdge 13367#1 14041 13888#2 13888#3 13888#4 13888#5 14012#0 13859#0 13859#1 13859#2 13834 13359 13734 13726#2 13606#0 13606#2 13606#4 13606#5 13606#6 13606#7 13418#0"/>
    </vehicle>
    <vehicle id="special_1-2_95" type="special" depart="19051" departLane="best" arrivalPos="random">
        <route edges="13654#3 13654#4 13526#2 13526#3 13526#4 -13525 -13293 -13221 13674 13679 13434#3 13434#0 13434#1 -13741#1 -13741#0 -13296 -13360 -13833 -13361 -13872 -13362 -13866 13363 13456 -13276 13533 13382 13383#2 -13380 13389#1 13389#2 13389#3 13191 13189#0 13190 14042 -13340 -13490 -14032 14550#1 14550#2 14550#3 14550#5 14550#6 14550#7 14550#8 14550#9 14550#10 14550#11 14550#12 14550#13 14550#14 14550#15 14550#16 14550#17 14550#18 14550#19 14550#20 13991#0 -13994 -14084#0 -13992#2 14547#0 14543#0 14543#1 -14543#1 -14543#0 -14547#0"/>
    </vehicle>
    <vehicle id="special_3-1_111" type="special" depart="19117" departLane="best" arrivalPos="random">
        <route edges="14526#0 14526#1 14526#2 14525#1 14525#2 14525#3 14525#4 14530#0 14530#1 14530#2 14530#3 14530#4 14530#5 14530#6 14081#6 13478 14712#1 14038 13465 14717 13401#0 13401#1 13401#2 13401#3 13401#4 13401#5 13401#6 13401#7 13218 -14080#3 -14080#2 -14080#1 -14080#0 -13971#1 -13971#0 13473#0 13473#1 13473#2 14011#0 14011#1 14011#2 13491#1 13379 13389#3 13191 13189#0 13189#1 13189#2 13189#3 13189#4 13189#5 13893#0 13893#1 13893#2 14033#4 -13889#3 -13889#2 -13889#1 -13889#0"/>
    </vehicle>
    <vehicle id="special_2-1_331" type="special" depart="19158" departLane="best" arrivalPos="random">
        <route edges="14562#0 13517 -13517 -14562#0 14525#3 14525#4 14525#5 14525#6 14525#7 14507#1 13806#0 -13808#2 -13808#1 -13808#0 14465#0 14465#1 14637#0 14401#0 14401#1 14401#2 14401#3 14401#4 14401#5 14401#6 14401#7 14401#8 14401#9 14401#11 14401#12 -14409#7 -14409#6 -14409#5 -14409#4 -14409#3 -14409#2 -14409#1 -14409#0 -14518#0 -14515#3 -14515#2 14520 13902#1 13902#2 -13908#4"/>
    </vehicle>
    <vehicle id="special_3-1_291" type="special" depart="19164" departLane="best" arrivalPos="random">
        <route edges="13975 14551#1 13372 14416 13373 -14550#26 -14550#25 -14550#24 -14550#23 -14084#1 13994 -13991#0 -14550#20 -14550#19 -14550#18 -14550#17 -14550#16 -14550#15 -14550#14 -14550#13 -14550#12 -14550#11 -14550#10 -14550#9 -14550#8 -14550#7 -14550#6 -14550#5 -14550#3 -14550#2 -14550#1 -14550#0 13490 13340 13491#0 13491#1 13379 13389#3 13389#4 13380 13383#3 13383#0 13341 13495 13276 -13456 -13363 13866 13362 13872 13361 13833 13360 13356 13741#0 13741#1 13434#2 -13679 -13674 13221 13293 13525 13526#1 -13654#4 -13654#3 -13654#2"/>
    </vehicle>
    <vehicle id="special_1-1_45" type="special" depart="19168" departLane="best" arrivalPos="random">
        <route edges="-14009 -13577 -13938 13961 -13933 -13932 13848 13889#0 13889#1 13889#2 13889#3 14033#5 14033#1 14033#2 14033#3 -13893#2 -13893#1 -13893#0 13189#6 13189#7 -13191 13389#4 13380 13383#3 -13375 14034#5 14034#6 14034#7 14034#8 -13897#1 -13897#0 -14624#3 -14624#2 -14624#1 -14624#0 -14043#0 -13219 14018#0 14018#1 14018#2 13304 13773#0 13839#0"/>
    </vehicle>
    <vehicle id="special_1-1_52" type="special" depart="19268" departLane="best" arrivalPos="random">
        <route edges="14043#1 14043#2 14043#3 14043#4 -13867#1 13880 14033#3 14033#4 -13889#3 -13889#2 -13889#1 -13889#0 -13848 13932 13934 -13961 13938 13936 -13936 -13938 13961 -13933 -13932"/>
    </vehicle>
    <vehicle id="special_2-1_205" type="special" depart="19310" departLane="best" arrivalPos="random">
        <route edges="-13565 14139#1 13667#1 14010#4 13678#7 13678#8 13678#9 13585#1 13424#4 13424#1 13424#2 13425#0 13425#1 -13724#0 -13739#10 -13739#9 -13739#8 -13739#7 -13739#6 -13739#5 -13739#4 -13739#3 -13739#2 -13739#1 13774#0 13774#1 -13847#5 -13847#4 -13847#3 -13847#2 -13847#0 13882#0 13882#1 13882#2 14012#2 14012#3 13892 14034#1 14034#2 14034#3 14034#4 14034#5 14034#6 14034#7 14034#8 14034#10 14033#2 14033#3 14033#4 -13889#3 -13889#2 -13889#1 -13889#0 -13848 13932 13934 -13961 13957 13956#0 13956#1 13953 13954 14016 13952#1 13952#2 13949 13941 13935"/>
    </vehicle>
    <vehicle id="special_3-1_117" type="special" depart="19321" departLane="best" arrivalPos="random">
        <route edges="-13975 14532#1 14079#0 14079#1 13305 14412 14717 13401#0 13401#1 13401#2 13401#3 13401#4 13401#5 13401#6 13401#7 13218 13220#0 13220#1 13470#1 13470#2 13973#0 13973#1 14062 13886#0 13886#1 13886#2 13886#3 13886#4 13886#5 13886#6 13886#7 13886#8 13886#9 13886#10 13886#11 13831 13300 13857#0 13891 14018#2 13304 13773#0 13773#1 13773#2 13773#3 13773#4 13773#5 13775 13776 13739#1 13739#2 13739#3 13739#4 13739#5 13739#6 13739#7 13739#8 -13725 -13745 -13731 -13723"/>
    </vehicle>
    <vehicle id="special_3-1_296" type="special" depart="19356" departLane="best" arrivalPos="random">
        <route edges="14533#1 14532#1 14079#0 14079#1 13305 14412 14717 13401#0 13401#1 13401#2 13401#3 13401#4 13401#5 13401#6 13401#7 13218 -14080#3 -14080#2 -14080#1 -14080#0 13971#2 -13942#4 -13904#6 -13904#5 -13904#4 -13904#3 -13904#2 -13904#1 -13904#0 -14061#1 -14061#0 -13867#1 13896#0 13881"/>
    </vehicle>
    <vehicle id="special_1-2_108" type="special" depart="19388" departLane="best" arrivalPos="random">
        <route edges="14080#0 14080#1 14080#2 14080#3 13220#0 13220#1 13470#1 13470#2 13973#0 13973#1 14062 13886#0 13886#1 13886#2 13886#3 13886#4 13886#5 13886#6 13886#7 13886#8 13886#9 13886#10 13886#11 13831 13300 13857#0 13891 14018#2 13304 13773#0 13773#1 13773#2 13773#3 13773#4 13773#5 13775 13776 13739#1 13739#2 13739#3 13739#4 13739#5 13739#6 13739#7 13739#8 13739#9 13739#10 13739#11 13677#1 13677#2 13221 13293 13525 13526#1 -13654#4 -13654#3 -13654#2 -13654#1 -13654#0 13648 13289 14439#0 14439#1 14439#2 14439#3 14439#4 14397#0 14397#1 14397#2 14397#3 14397#4 14006#2 14433#0 14433#1 14432#0 13621"/>
    </vehicle>
    <vehicle id="special_1-3_282" type="special" depart="19404" departLane="best" arrivalPos="random">
        <route edges="-14070#7 -14070#6 -14070#5 -14070#4 -14070#3 -14070#2 -14070#0 14405#5 14405#6 14405#7 14405#8 14405#9 14405#10 14405#11 14403#4 14403#5 14486#5 13321 14459#0 14459#1 13320 14457#0 -14460 14458#1 14458#2 14458#3 14458#4 14458#5 14458#6 13700#1 -14461#2 -14461#1 -14466 14637#3 -14465#1 -14465#0 13808#0 13808#1 13808#2 -13806#0 -14498#0 -14507#0 -14525#6 14509#0 14509#1 14509#2 14509#3 13488#1 13485#0 13485#1 13485#2 13485#3"/>
    </vehicle>
    <vehicle id="special_2-1_101" type="special" depart="19405" departLane="best" arrivalPos="random">
        <route edges="13984#2 13984#3 13984#4 13984#5 13984#6 13984#8 14056#1 14056#2 14056#3 -13972#1 -13959#2 -13959#1 -13959#0 13970#0 13970#1 13970#2 -13369 13929 13189#3 13189#4 13189#5 13189#6 13189#7 -13191 13389#4 13380 13383#3 -13375 14034#5 14034#6 14034#7 14034#8 -13897#1 -13897#0 -14624#3 -14624#2 -14624#1 -14624#0 14043#1 14043#2"/>
    </vehicle>
    <vehicle id="special_2-1_14" type="special" depart="19434" departLane="best" arrivalPos="random">
        <route edges="14107#0 14107#1 14107#2 -14059 -13792#1 -13792#0 -14497#3 14484#0 14484#1 14484#2 14484#3 14484#4 14484#5 14484#6 14484#7 14484#8 14484#9 -14405#2 -14405#1 -14405#0 -14489#1 -14489#0 14487#14 14487#15 14487#16 14071 14073 13778#0 13778#1 13778#2 13778#3 -13773#2 -13773#1 -13773#0 13299 14017#0 13865 13857#2 13219 14043#0 14624#0 14624#1 14624#2 14624#3 13897#0 13897#1 14034#10 14033#2 14033#3 -13893#2 -13893#1 -13893#0 13189#6 13189#7 13189#0 13189#1 13189#2 -13929 13369 -13970#2 -13970#1 -13970#0 14635 14049#2 14049#3 13958#0 14040#0 14040#1 13530#1 13530#2 13469#0 13469#1 13718 -13368"/>
    </vehicle>
    <vehicle id="special_2-1_164" type="special" depart="19439" departLane="best" arrivalPos="random">
        <route edges="14404#0 14404#1 -14405#8 -14405#7 -14405#6 -14405#5 -14405#4 -14405#2 -14405#1 -14405#0 -14489#1 -14489#0 14487#14 14487#15 14487#16 14071 14073 13778#0 13778#1 13778#2 13778#3 13773#3 13773#4 13773#5 13775 13776 13774#0 -13760#2 -13760#1 -13760#0 -13722#0 -13749#5 -13749#4 -13749#3 -13749#2 -13749#1 -13749#0 13726#0 13726#1 13726#2 13606#0 13606#2 13606#4 13606#5 13606#6"/>
    </vehicle>
    <vehicle id="special_1-2_100" type="special" depart="19449" departLane="best" arrivalPos="random">
        <route edges="13874 13890#1 13890#2 13890#3 13890#4 13888#0 13888#1 13888#2 13888#3 13888#4 13888#5 14012#0 14012#1 -13882#2 -13882#1 -13882#0 13847#0 13847#2 13847#3 13847#4 13847#5 -13774#1 -13774#0 13739#1 13739#2 13739#3 13786#0 13777#2 13750 13614 13719#0 13720#0 13720#1"/>
    </vehicle>
    <vehicle id="special_1-2_214" type="special" depart="19490" departLane="best" arrivalPos="random">
        <route edges="13908#3 13908#4 -13902#2 -13902#1 -13902#0 -14515#1 -14515#0 -14519#1 -14519#0 -14478#8 -14478#7 -14478#6 -14478#5 -14478#4 -14478#3 -14478#2 -14478#1 14629#0 14629#1 14629#2 -14631 -14487#16"/>
    </vehicle>
    <vehicle id="special_3-1_45" type="special" depart="19499" departLane="best" arrivalPos="random">
        <route edges="14533#1 14532#1 14079#0 14079#1 13305 14412 14717 13401#0 13401#1 13401#2 13401#3 13401#4 13401#5 13401#6 13401#7 13218 13220#0 13220#1 13470#1 13470#2 13973#0 13973#1 14062 13886#0 13886#1 13886#2 13886#3 13886#4 13886#5 13886#6 13886#7 13886#8 13886#9 13886#10 13886#11 13831 13300 13857#0 13891 14018#2 13304 13773#0 13773#1 13773#2 -13778#3 -13778#2 -13778#1 -13778#0 -14073 -14071 -14487#16 -14487#15 -14487#14 -14487#13 -14487#12 -14487#11 -14487#10 -14487#9 -14487#8 -14487#7 -14487#6 -14487#5 -14487#4 -14487#3 -14487#1 -14487#0 14473#0 14473#1 14005#4 14005#0 14005#1 14005#2 14403#0 14403#1 14403#2"/>
    </vehicle>
    <vehicle id="special_1-2_16" type="special" depart="19513" departLane="best" arrivalPos="random">
        <route edges="13955#0 13950 -14634#3 13970#1 13970#2 -13369 13929 13189#3 13189#4 13189#5 13189#6 13189#7 -13191 13389#4 13389#1 13389#2 -13379 13351 13602 -13401#7 -13401#6 -13401#5 -13401#4 -13401#3 -13401#2 -13401#1 -13401#0 -13481#3 -14528#1 -14528#0 14528#0 14528#1 13481#3"/>
    </vehicle>
    <vehicle id="special_1-3_166" type="special" depart="19557" departLane="best" arrivalPos="random">
        <route edges="-13732#0 13749#3 13749#4 13749#5 13722#0 13744#1 13744#2 -13847#0 13882#0 13882#1 13882#2 14012#2 14012#3 13892 14034#1 14034#2 14034#3 14034#4 13375 13383#0 13383#1 13383#2 -13380 13389#1 13389#2 -13379 13351 13602 -13401#7 -13401#6 -13401#5 -13401#4 -13401#3 -13401#2 -13401#1 -13401#0 14713 14710#1 14712#1 14076#0 14076#1 -14532#1 -14532#0 -14533#0 -13326 14534 -14534 13326 14533#0 14533#1"/>
    </vehicle>
    <vehicle id="special_1-3_224" type="special" depart="19631" departLane="best" arrivalPos="random">
        <route edges="14403#2 14403#3 14403#4 14403#5 14486#5 13321 14459#0 14459#1 13320 14457#0 -14460 14458#1 14458#2 14458#3 14458#4 14458#5 14458#6 13700#1 -14461#2 -14461#1 -14466 14637#3 -14465#1 -14465#0 13808#0 13808#1 13808#2 -13806#0 -14498#0 -14507#0 -14525#6 -14525#5 -14525#4 -14525#3 -14525#2 -14525#1 -14525#0 -14526#1 14531 14533#1"/>
    </vehicle>
    <vehicle id="special_3-1_44" type="special" depart="19654" departLane="best" arrivalPos="random">