<?xml version="1.0" encoding="UTF-8"?>

<!-- 
    Monaco SUMO Traffic (MoST) Scenario
    Copyright (C) 2018 
    Lara CODECA

    This program is free software: you can redistribute it and/or modify
    it under the terms of the GNU General Public License as published by
    the Free Software Foundation, either version 3 of the License, or
    (at your option) any later version.

    This program is distributed in the hope that it will be useful,
    but WITHOUT ANY WARRANTY; without even the implied warranty of
    MERCHANTABILITY or FITNESS FOR A PARTICULAR PURPOSE.  See the
    GNU General Public License for more details.

    You should have received a copy of the GNU General Public License
    along with this program.  If not, see <http://www.gnu.org/licenses/>.
-->

<routes xmlns:xsi="http://www.w3.org/2001/XMLSchema-instance" xsi:noNamespaceSchemaLocation="http://sumo.dlr.de/xsd/routes_file.xsd">
    <vehicle id="other_GW1_18" type="trailer" depart="18017.00" departLane="best">
        <route edges="430#0 434 172 437 79 219 78 221#0 221#1 180 771 85 441 290 1578 223#0 223#1 223#2 223#3 223#4 223#5 223#6 223#7 223#8 -927#3 -927#2 -927#1 -927#0 -816#1 -816#0 856#0 856#1 856#2 316#1 201 211#3 17 15#0 15#1 15#2 15#3 15#4 15#5 737#0 737#2 878#3 -733#3 -733#2 -733#1 -733#0 -692 679 -688 -689 690 715 719 -722 -704 -785 -780 -786 -794 -797"/>
    </vehicle>
    <vehicle id="other_1_334" type="trailer" depart="18019.00" departLane="best">
        <route edges="675 112 701#0 735 863#2 116 111 862#0"/>
    </vehicle>
    <vehicle id="other_2_207" type="emergency" depart="18057.00" departLane="best">
        <route edges="-856#2 -856#1 -856#0 298#0 298#2 856#0 856#1 856#2 316#1 201 211#3 211#4 202 205#3 205#0 163 320 81 -281 -185 710 184 716 183 677 182 179 591 569#1 569#2 439#0 439#2 -383"/>
        <stop parkingArea="22443" duration="43200.00"/>
    </vehicle>
    <vehicle id="other_GW1_394" type="delivery" depart="18156.00" departLane="best">
        <route edges="420 148 1563 149 1561 164 422 83 419#0 431 469 415#3 415#4 1309#0 1309#1 1309#2 1309#3 1309#4 1309#5 1309#6 1309#7 -1311#1 -1311#0 -138 -1313#1 -1313#0 -139 -1340#5 -1250#5 -1250#4 -1252#11 -1252#10 -1252#9 -1252#8 -1252#7 -1252#6 -1252#5 -1252#4 -1252#2 -1252#1 -1252#0 -1343#1 -1343#0 1341#14 1341#15 1341#16 918 920 622#0 622#1 622#2 622#3 696 683#2 683#3 632"/>
    </vehicle>
    <vehicle id="other_GW2_104" type="emergency" depart="18226.00" departLane="best">
        <route edges="-891 -86 -449 88 450 -90 -454 -91 -463 -96 -486#1 483#1 483#2 -897 -538#1 -538#0 -1352#1 650#0 -652#2 -652#1 -652#0 1319#0 1319#1 1494#0 1494#1 1494#2 1320 1315#1 1315#2 -542#1 -542#0 -1312#5 -1312#4 -1312#3 -1312#2 -1312#1 -1312#0 137 1314 -1311#0 -138 -1313#1 -1313#0 -139 -1340#5 -1250#5 -1250#4 -1252#11 -1252#10 -1252#9 -1252#8 -1252#7 -1252#6 -1252#5 -1252#4 -1252#2 -1252#1 -1252#0 -1343#1 -1343#0 1341#14 1341#15 1341#16 918 920 622#0 622#1 622#2 622#3 696 683#2 -455 -858#2 -858#1 -858#0 110 720 726#1 726#2 857#2 857#3 857#4 857#0"/>
    </vehicle>
    <vehicle id="other_2_326" type="emergency" depart="18295.00" departLane="best">
        <route edges="-263 1248#12 -1256#7 -1256#6 -1256#5 -1256#4 -1256#3 -1256#2 -1256#1 -1256#0 -1372#0 -1369#3 -1369#2 -1369#1 1371 728#1 728#2 728#3 728#4 728#5 730#8 730#9 730#10 730#11 675 112 701#0 735 863#2 116 617#0 683#0 683#1 683#2 683#3 632 276"/>
    </vehicle>
    <vehicle id="other_1_782" type="trailer" depart="18358.00" departLane="best">
        <route edges="443#1 15#2 15#3 15#4 15#5 15#6 15#7 15#0 16 887 -162 -315"/>
    </vehicle>
    <vehicle id="other_GW2_50" type="emergency" depart="18359.00" departLane="best">
        <route edges="1593 175 -465 -1285#2 -1282#2 -1282#1 -1282#0 -1287#1 -1287#0 851#3 851#0 -468#6 -468#5 -468#3 -468#2 -468#1 -468#0 1300#1 1408#0 1408#1 1408#2 1408#3 1408#4 1408#5 1408#6 1408#7 497#1 243 494#0 494#1 494#2 494#3 494#4 351#2 351#3 351#4 -350 -105 -519#3 -519#2 -519#1 -519#0 -582#10 -582#9 -582#8 -582#7 -582#6 -582#5 -582#4 -582#3 -582#2 -582#1 618#0 618#1 -691#5 -691#4 -691#3 -691#2 -691#0 726#0 726#1 726#2 857#2 857#3 857#4 857#0"/>
    </vehicle>
    <vehicle id="other_1_465" type="truck" depart="18364.00" departLane="best">
        <route edges="863#2 116 111 862#0 862#1 675 112 701#0"/>
    </vehicle>
    <vehicle id="other_2_366" type="delivery" depart="18448.00" departLane="best">
        <route edges="-1347 1370#5 881 -1373#1 -1373#0 924#1 925 729 717 698 1484#2 1484#3 743#0 743#1 888#1 1480#0 1480#1 1480#2 1480#3 741#0 741#1 879#11 878#1 878#2 -737#2 -737#0 15#6 15#7 -17 211#4 211#1 210"/>
    </vehicle>
    <vehicle id="other_2_808" type="delivery" depart="18471.00" departLane="best">
        <route edges="-811#0 902#3 -817#1 -804#2 -804#1 -804#0 815#0 815#1 815#2 -191 773 15#3 15#4 15#5 15#6 15#7 -17 211#4 202 205#3 -197 879#5 879#6 879#7 879#8 -741#1 -741#0 -1480#3 -1480#2 -1480#1 -1480#0 -888#1 -743#1 -743#0 1484#1 -698 -717 730#9 723 -864#1 -864#0"/>
    </vehicle>
    <vehicle id="other_2_452" type="truck" depart="18475.00" departLane="best">
        <route edges="-812#2 -812#1 -1404#0 315 162 316#0 316#1 201 211#3 17 15#0 15#1 15#2 15#3 15#4 15#5 737#0 737#2 878#3 -733#3 -733#2 -733#1 -733#0 -692 679 -688 -689 690 -676 -679 692 733#0 733#1 733#2 733#3"/>
    </vehicle>
    <vehicle id="other_2_150" type="emergency" depart="18503.00" departLane="best">
        <route edges="-814#0 -819#7 -819#6 -819#5 -819#4 -819#3 -819#2 -819#1 -819#0 298#2 816#0 816#1 816#2 193 -787#5 -787#4 -787#3 -787#2 -787#1 -787#0 1484#3 864#0 864#1 864#2 730#11 675 112 701#0 735 863#2 116 617#0 617#1 617#2 617#3 617#4 617#5 619 620 582#1 582#2 582#3 576 868 566 574 589"/>
    </vehicle>
    <vehicle id="other_GW1_189" type="emergency" depart="18566.00" departLane="best">
        <route edges="420 148 1563 149 1561 164 422 83 419#0 431 469 415#3 415#4 1309#0 1309#1 1309#2 1309#3 1309#4 1309#5 1309#6 1309#7 -1311#1 -1311#0 -138 -1313#1 -1313#0 -139 -1340#5 -1250#5 -1250#4 -1252#11 -1252#10 -1252#9 -1252#8 -1252#7 -1252#6 -1252#5 -1252#4 -1252#2 -1252#1 -1252#0 -1343#1 -1343#0 1341#14 1341#15 1341#16 918 920 622#0 622#1 622#2 622#3 -617#2 -617#1 -617#0 111 862#0 709 701#2"/>
    </vehicle>
    <vehicle id="other_1_169" type="delivery" depart="18795.00" departLane="best">
        <route edges="932#1 563#1 563#2 563#3 563#4 563#5 1334#0 1334#1 1334#2 595 630#2 630#3 -617#5 -617#4 -617#3 -617#2 -617#1 -617#0 111 862#0 862#1 -730#11 -730#10 -730#9 -730#8 -730#7 -730#6"/>
    </vehicle>
    <vehicle id="other_1_582" type="emergency" depart="18810.00" departLane="best">
        <route edges="1256#4 1256#5 1256#6 1256#7 -1248#12 -1248#11 -1248#10 -1248#9 -958 1248#11 1248#12 -1256#7 -1256#6 -1256#5 -1256#4 -1256#3 -1256#2 -1256#1 -1256#0 -1372#0 -1369#3 -1369#2 -1369#1 1371 728#1 728#2 728#3 728#4 728#5 730#8 717 698 1484#2 1484#3 743#0 743#1 888#1 1480#0 1480#1 1480#2 1480#3 741#0 741#1 879#11 878#1 878#2 878#3 878#4 695 734#0 734#1 734#2 734#3 284#0 284#1"/>
    </vehicle>
    <vehicle id="other_3_118" type="truck" depart="18835.00" departLane="best">
        <route edges="1563 149 1561 164 422 83 419#0 431 469 415#3 415#4 1309#0 1309#1 1309#2 1309#3 1309#4 1309#5 1309#6 1309#7 -1311#1 -1311#0 -138 -1313#1 -1313#0 -139 -1340#5 -1250#5 -1250#4 -1250#3 -1250#2 -1250#1 -1250#0 850#3 -1327#1 -1327#0 563#0 563#1 563#2 563#3 563#4 563#5 1334#0 1334#1 1334#2 595 594 447 561#0 562#0 562#1 562#2 562#3 562#4 562#5 1326#0 1326#1"/>
    </vehicle>
    <vehicle id="other_3_503" type="truck" depart="18876.00" departLane="best">
        <route edges="1274 456 -913 -1422 -1285#2 -1282#2 -1282#1 -1282#0 -1287#1 -1287#0 851#3 851#0 -468#6 -468#5 -468#3 -468#2 -468#1 -468#0 1300#1 1408#0 1408#1 1408#2 1408#3 1408#4 1408#5 1408#6 1408#7 497#1 243 494#0 494#1 494#2 494#3 494#4 351#2 351#3 520#0 -524#1 531 520#2 520#3 520#4 520#5 520#6 520#7 520#8 520#9 416#1 -562#6 1326#0"/>
    </vehicle>
    <vehicle id="other_GW1_215" type="coach" depart="18885.00" departLane="best">
        <route edges="430#0 434 172 437 79 219 78 221#0 221#1 180 771 85 441 290 1578 223#0 223#1 223#2 223#3 223#4 223#5 223#6 223#7 223#8 223#9 223#10 295#1 295#2 818#0 818#1 908 730#0 730#1 730#2 730#3 730#4 730#5 730#6 730#7 730#8 730#9 730#10 730#11 675 112 701#0 735 863#2 116 617#0 617#1 617#2 -622#3 -622#2 631 627#0 628 394#5 609#2 601#1 1346"/>
    </vehicle>
    <vehicle id="other_3_488" type="trailer" depart="18889.00" departLane="best">
        <route edges="1386#1 926#0 926#1 117 1259 1578 223#0 223#1 223#2 223#3 223#4 223#5 223#6 223#7 223#8 223#9 223#10 295#1 295#2 818#0 818#1 908 730#0 730#1 730#2 730#3 730#4 730#5 730#6 730#7 730#8 730#9 730#10 730#11 675 112 701#0 735 863#2 116 111 862#0 862#1 -730#11"/>
    </vehicle>
    <vehicle id="other_GW1_29" type="trailer" depart="18894.00" departLane="best">
        <route edges="430#0 434 172 437 79 219 78 221#0 221#1 180 771 85 441 290 1578 223#0 223#1 223#2 223#3 223#4 223#5 223#6 223#7 223#8 223#9 223#10 295#1 295#2 818#0 818#1 908 730#0 730#1 730#2 730#3 730#4 730#5 730#6 730#7 730#8 730#9 730#10 730#11 675 112 701#0 735 863#2 116 617#0 617#1 617#2 617#3 617#4 617#5 619 620 582#1 582#2 582#3 582#4 582#5 582#6 582#7 582#8 582#9 582#10 582#11 519#1 519#2 519#3 105 350 351#1 351#2 529#0 529#1 529#2 -212"/>
    </vehicle>
    <vehicle id="other_GW1_44" type="delivery" depart="18907.00" departLane="best">
        <route edges="420 148 1563 149 1561 164 422 83 419#0 431 469 415#3 415#4 1309#0 1309#1 1309#2 1309#3 1309#4 1309#5 1309#6 1309#7 -1311#1 -1311#0 -138 -1313#1 -1313#0 -139 -1340#5 -1250#5 -1250#4 -1252#11 -1252#10 -1252#9 -1252#8 -1252#7 -1252#6 -1252#5 -1252#4 -1252#2 -1252#1 -1252#0 -1343#1 -1343#0 1341#14 1341#15 1341#16 918 920 622#0 622#1 631 627#0 628 394#5 -609#1"/>
    </vehicle>
    <vehicle id="other_GW1_153" type="truck" depart="18959.00" departLane="best">
        <route edges="1406 196 844 145 1405#0 1405#1 194 1263 195 -1404#27 -1404#26 -1404#25 -1404#24 -1404#23 -1404#21 -1404#20 -1404#19 -1404#18 -1404#17 -1404#16 -1404#13 -1404#12 -1404#11 -1404#10 -1404#9 -1404#8 -1404#7 -1404#6 -1404#5 -1404#3 -1404#2 -1404#1 -1404#0 315 162 316#0 316#1 201 211#3 211#4 202 205#3 -197 879#5 879#6 879#7 879#8 -741#1 -741#0 -1480#3 -1480#2 -1480#1 -1480#0 -888#1 -888#0 863#0 863#1 863#2 116 617#0 617#1 617#2 -622#3 -622#2 -622#1 -622#0 -920 -918 -1341#16 -1341#15 -1341#14 -1341#13 -1341#12 -1341#11 -1341#10 -1341#9 -1341#8 -1341#7 -1341#6 -1341#5 -1341#4 -1341#3 -1341#1 -1341#0 1327#0 1327#1 850#4 850#0 -1302#14 -1302#13 -1302#12"/>
    </vehicle>
    <vehicle id="other_2_340" type="emergency" depart="18965.00" departLane="best">
        <route edges="-1336 -1331 1338#5 1338#6 1338#7 1338#8 1338#9 -1252#2 -1252#1 -1252#0 -1343#1 -1343#0 1341#14 1341#15 1341#16 918 920 622#0 622#1 622#2 622#3 617#3 617#4 617#5 619 620 572#0 572#1 572#2 564#0"/>
    </vehicle>
    <vehicle id="other_2_17" type="emergency" depart="18976.00" departLane="best">
        <route edges="-474 1408#3 1408#4 1408#5 1408#6 1408#7 497#1 243 494#0 494#1 494#2 494#3 494#4 351#2 351#3 351#4 -350 -105 -519#3 -519#2 -519#1 -519#0 -582#10 -582#9 -582#8 -582#7 -582#6 -582#5 -582#4 630#1 630#2 630#3 -617#5 -617#4 -617#3 -617#2 -617#1 -617#0 111 862#0 862#1 -730#11 -864#2 -864#1 -864#0 743#0 743#1"/>
    </vehicle>
    <vehicle id="other_GW1_13" type="delivery" depart="18980.00" departLane="best">
        <route edges="1406 196 844 145 1405#0 1405#1 194 1263 195 -1404#27 -1404#26 -1404#25 -1404#24 -1404#23 -1404#21 -1404#20 -1404#19 -1404#18 -1404#17 -1404#16 -1404#13 -1404#12 -1404#11 -1404#10 -1404#9 -1404#8 -1404#7 -1404#6 -1404#5 -1404#3 -1404#2 -1404#1 -1404#0 315 162 316#0 316#1 201 211#3 211#4 202 205#3 -197 879#5 879#6 879#7 879#8 -741#1 -741#0 -1480#3 -1480#2 -1480#1 -1480#0 -888#1 -888#0 863#0 863#1 863#2 116 617#0 617#1 617#2 -622#3 -622#2 -622#1 -622#0 -920 -918 -1341#16 -1341#15 -1341#14 1343#0 1343#1 1252#0 1252#1 1252#2 1252#4 917#0 917#2 917#3 917#4 917#5 917#6"/>
    </vehicle>
    <vehicle id="other_3_426" type="trailer" depart="19002.00" departLane="best">
        <route edges="-448 -87 1274 456 -913 -1422 -1285#2 -1282#2 -1282#1 -1282#0 -1287#1 -1287#0 851#3 851#0 -468#6 -468#5 -468#3 -468#2 -468#1 -468#0 1300#1 1408#0 1408#1 1408#2 1408#3 1408#4 1408#5 1408#6 1408#7 497#1 243 494#0 494#1 494#2 494#3 494#4 351#2 351#3 351#4 -350 -105 -519#3 -519#2 -519#1 -519#0 -582#10 -582#9 -582#8 -582#7 -582#6 -582#5 -582#4 -582#3 -582#2 -582#1 618#0 618#1 -691#5 -691#4 -691#3 -691#2 -691#0 726#0 726#1 726#2 857#2 857#3 736 879#1 879#2 879#3 879#4 197 205#0 205#1 205#2 -202 211#1 210 -815#2 -815#1 -815#0 1492 895#2 895#3 895#4 800#0 800#1 800#2 791#5 791#0 791#1 792#0 792#1 792#2 177"/>
    </vehicle>
    <vehicle id="other_2_745" type="emergency" depart="19027.00" departLane="best">
        <route edges="306#2 306#3 223#0 223#1 223#2 223#3 223#4 223#5 223#6 223#7 223#8 -927#3 -927#2 -927#1 -927#0 -816#1 -816#0 856#0 856#1 856#2 316#1 201 211#3 17 15#0 15#1 15#2 15#3 15#4 15#5 737#0 737#2 878#3 878#4 878#0 878#1 878#2 -737#2 -737#0"/>
    </vehicle>
    <vehicle id="other_1_33" type="truck" depart="19057.00" departLane="best">
        <route edges="516 439#6 523 528 440#2 440#3 440#4 440#6 440#8 569#4 585#3 1481 593#0 593#1 593#2 593#3 593#4 583#0 583#1 583#2 630#1 594 447 561#0 561#1 561#2 1333#0"/>
    </vehicle>
    <vehicle id="other_GW1_172" type="delivery" depart="19075.00" departLane="best">
        <route edges="420 148 1563 149 1561 164 422 83 419#0 431 469 415#3 415#4 1309#0 1309#1 1309#2 1309#3 1309#4 1309#5 1309#6 1309#7 -1311#1 -1311#0 -138 -1313#1 -1313#0 -139 -1340#5 -1250#5 -1250#4 -1252#11 -1252#10 -1252#9 -1252#8 -1252#7 -1252#6 -1252#5 -1252#4 -1252#2 -1252#1 -1252#0 -1343#1 -1343#0 1341#14 1341#15 1341#16 918 920 622#0 622#1 622#2 622#3 617#3 617#4 617#5 619 620 572#0 572#1 572#2 -593#5 -593#4 -593#3 -593#2 -593#1 -593#0 586 569#1 569#2 439#0 440#8"/>
    </vehicle>
    <vehicle id="other_1_862" type="emergency" depart="19087.00" departLane="best">
        <route edges="188 1577 1576 791#4 791#5 791#0 791#1 791#2 1575 189#0 189#0-AddedOffRampEdge 189#1 886 732#2 732#3 732#4 732#5 857#0 857#1 -726#2 -726#1 -726#0 691#0 -588#2 -588#1 -564#0 -593#5 583#0 583#1 583#2 -582#3 -582#2"/>
    </vehicle>
    <vehicle id="other_3_6" type="delivery" depart="19107.00" departLane="best">
        <route edges="-1421 -1264 -1269#0 911#1 456 -913 -1422 -1285#2 -1282#2 -1282#1 -1282#0 -1287#1 -1287#0 851#3 851#0 -468#6 -468#5 -468#3 -468#2 -468#1 -468#0 1300#1 1408#0 1408#1 1408#2 1408#3 1408#4 1408#5 1408#6 1408#7 497#1 243 494#0 494#1 494#2 494#3 494#4 351#2 351#3 351#4 -350 -105"/>
    </vehicle>
    <vehicle id="other_GW1_28" type="emergency" depart="19115.00" departLane="best">
        <route edges="420 148 1563 149 1561 164 422 83 419#0 431 469 415#3 415#4 1309#0 1309#1 1309#2 1309#3 1309#4 1309#5 1309#6 1309#7 -1311#1 -1311#0 -138 -1313#1 -1313#0 -139 -1340#5 -1250#5 -1250#4 -1252#11 -1252#10 -1252#9 -1252#8 -1252#7 -1252#6 -1252#5 -1252#4 -1252#2 -1252#1 -1252#0 -1343#1 -1343#0 1341#14 1341#15 1341#16 918 920 622#0 622#1 622#2 622#3 -617#2 -617#1 -617#0 111 862#0 862#1 -730#11 -864#2 -864#1 -864#0 1484#1 1484#2 787#0 787#1 787#2 787#3 787#4 787#5 -193 -816#2 -816#1"/>
        <stop parkingArea="22456" duration="43200.00"/>
    </vehicle>
    <vehicle id="other_GW2_82" type="emergency" depart="19161.00" departLane="best">
        <route edges="1380#0 1380#1 1380#2 1379#1 1379#2 1379#3 1379#4 1384#0 1384#1 1384#2 1384#3 1384#4 1384#5 1384#6 928#6 303 1573#1 883 290 1578 223#0 223#1 223#2 223#3 223#4 223#5 223#6 223#7 223#8 223#9 223#10 295#1 295#2 818#0 818#1 213 299 315 162 316#0 -856#2 -856#1"/>
    </vehicle>
    <vehicle id="other_3_516" type="emergency" depart="19188.00" departLane="best">
        <route edges="456 -913 -1422 -1285#2 -1282#2 -1282#1 -1282#0 -1287#1 -1287#0 851#3 851#0 -468#6 -468#5 -468#3 -468#2 -468#1 -468#0 1300#1 1408#0 1408#1 1408#2 1408#3 1408#4 1408#5 1408#6 1408#7 497#1 243 494#0 494#1 494#2 494#3 494#4 351#2 351#3 351#4 -350 -105 -519#3 -519#2 -519#1 -519#0 -582#10 -582#9 -582#8 -582#7 -582#6 -582#5 -582#4 630#1 630#2 630#3 -617#5 -617#4 -617#3 -617#2 -617#1 -617#0 111 862#0 862#1 -730#11 -730#10 -730#9 -730#8 -728#5 -728#4 -728#3 -728#2 -728#1 -728#0"/>
    </vehicle>
    <vehicle id="other_3_543" type="emergency" depart="19216.00" departLane="best">
        <route edges="127 448 911#1 456 -913 -1422 -1285#2 -1282#2 -1282#1 -1282#0 -1287#1 -1287#0 851#3 851#0 851#1 -1244#4 -1244#3 -1244#2 -1244#1 -1244#0 -1291#3 470 -493#4 -493#3 -493#2 -493#1 -493#0 238#1 -491#1 -491#0 -101 -499#3 -499#2 -499#1 -499#0 106 521#0 521#1 257#3 257#0 257#1 -584#1 -584#0 -108 -178 -182 -677 -183 -716 -184"/>
    </vehicle>
    <vehicle id="other_1_457" type="emergency" depart="19317.00" departLane="best">
        <route edges="-1372#3 -1372#2 -1372#0 -1369#3 -1369#2 1374 746#1 746#2"/>
    </vehicle>
    <vehicle id="other_GW1_136" type="trailer" depart="19384.00" departLane="best">
        <route edges="420 148 1563 149 1561 164 422 83 419#0 431 469 415#3 415#4 1309#0 1309#1 1309#2 1309#3 1309#4 1309#5 1309#6 1309#7 -1311#1 -1311#0 -138 -1313#1 -1313#0 -139 -1340#5 -1340#4 -1340#3 -1340#2 -1340#1 -1340#0 -142 1351#1 1351#2 1351#3 1351#4 143#0 143#1 -1368#6 -1368#5 -1368#4 -1368#3 -1368#2 -1368#1 -1369#3 -1369#2 1374 746#1 746#2 752#5 752#6 730#3 730#4 730#5 730#6 730#7"/>
    </vehicle>
    <vehicle id="other_3_79" type="coach" depart="19416.00" departLane="best">
        <route edges="-1271 -128 -1269#1 -1269#0 911#1 456 -913 -1422 -1285#2 -1282#2 -1282#1 -1282#0 -1287#1 -1287#0 851#3 851#0 -468#6 -468#5 -468#3 -468#2 -468#1 -468#0 1300#1 1408#0 1408#1 1408#2 1408#3 1408#4 1408#5 1408#6 1408#7 497#1 243 494#0 494#1 494#2 494#3 494#4 351#2 351#3 351#4 -350 -105 -519#3 -519#2 -519#1 -519#0 -582#10 -582#9 -582#8 -582#7 -582#6 -582#5 -582#4 630#1 630#2 630#3 -617#5 -617#4 -617#3 -617#2 -617#1 -617#0 111 862#0 862#1 -730#11 -730#10 -730#9 -730#8 -728#5 -728#4 -728#3 -728#2 -728#1 -728#0 1369#1 1369#2 1369#3 -1368#0 1256#0 1256#1 1256#2"/>
    </vehicle>
    <vehicle id="other_1_10" type="coach" depart="19435.00" departLane="best">
        <route edges="-281 -185 710 184 716 183 677 182 179 591 569#1 569#2 569#3 569#4 585#3 1481 593#0 593#1 593#2 593#3 593#4 593#5 564#0 588#1 588#2 691#2 -580 -632 -683#3 -683#2 -683#1 -683#0 -617#0 111 862#0 709 701#2 888#0 888#1 888#2 888#3"/>
    </vehicle>
    <vehicle id="other_GW1_314" type="delivery" depart="19490.00" departLane="best">
        <route edges="1406 196 844 145 1405#0 1405#1 194 1263 195 -1404#27 -1404#26 -1404#25 -1404#24 -1404#23 -1404#21 -1404#20 -1404#19 -1404#18 -1404#17 -1404#16 -1404#13 -1404#12 -1404#11 -1404#10 -1404#9 -1404#8 -1404#7 -1404#6 -1404#5 -1404#3 -1404#2 -1404#1 -1404#0 315 162 316#0 316#1 201 211#3 211#4 202 205#3 -197 -747#2 -747#1 -747#0 732#4 732#5 857#0 857#1 -726#2 -726#1 -726#0 691#0 691#2 691#3 691#4 691#5 -618#1 -618#0 582#1 582#2 582#3 630#1 594 447 561#0 561#1 561#2 1324#0 1324#1 1324#2 1324#3"/>
    </vehicle>
    <vehicle id="other_1_717" type="delivery" depart="19524.00" departLane="best">
        <route edges="284#1 280 732#0 732#1 732#2 732#3 747#0 282#1 282#2 -700#1 -700#0 -682#1 -682#0 879#7 879#8 -741#1 -741#0 -1480#3 -1480#2 -1480#1 -1480#0 -888#1 -743#1 -743#0 864#0 864#1 864#2 730#11"/>
    </vehicle>
    <vehicle id="other_GW1_261" type="truck" depart="19557.00" departLane="best">
        <route edges="420 148 1563 149 1561 164 422 83 419#0 431 469 415#3 415#4 1309#0 1309#1 1309#2 1309#3 1309#4 1309#5 1309#6 1309#7 -1311#1 -1311#0 -138 -1313#1 -1313#0 -139 -1340#5 -1250#5 -1250#4 -1252#11 -1252#10 -1252#9 -1252#8 -1252#7 -1252#6 -1252#5 -1252#4 -1252#2 -1252#1 -1252#0 -1343#1 -1343#0 1341#14 1341#15 1341#16 918 920 622#0 622#1 622#2 622#3 617#3 617#4 617#5 619 620 582#1 582#2 582#3 582#4 582#5 582#6 582#7 582#8 -568 -589 -574 -566"/>
        <stop parkingArea="22428" duration="43200.00"/>
    </vehicle>
    <vehicle id="other_2_515" type="emergency" depart="19560.00" departLane="best">
        <route edges="-818#0 295#3 295#0 295#1 295#2 818#0 818#1 908 730#0 730#1 730#2 730#3 730#4 730#5 730#6 730#7 730#8 730#9 730#10 730#11 675 112 701#0 735 863#2 116 617#0 683#0 683#1 683#2 683#3 858#5 -691#5"/>
    </vehicle>
    <vehicle id="other_GW1_160" type="coach" depart="19566.00" departLane="best">
        <route edges="430#0 434 172 437 79 219 78 221#0 221#1 180 771 85 441 290 1578 223#0 223#1 223#2 223#3 223#4 223#5 223#6 223#7 223#8 223#9 223#10 295#1 295#2 295#3 -808#1 -808#0 192 -809#1 -809#0 752#0 752#1 -287 -752#2 -752#1"/>
    </vehicle>
    <vehicle id="other_2_858" type="emergency" depart="19577.00" departLane="best">
        <route edges="-392#2 -392#1 -392#0 -483#6 -483#5 -483#4 -483#3 -897 -538#1 -538#0 -1352#1 650#0 -652#2 -652#1 -652#0 1319#0 1319#1 1494#0 1494#1 1494#2 1320 1315#1 1315#2 -542#1 -542#0 -1312#5 -1312#4 -1312#3 -1312#2 -1312#1 -1312#0 137 1314 -1311#0 -138 -1313#1 -1313#0 -139 -1340#5 -1250#5 -1250#4 -1250#3"/>
    </vehicle>
    <vehicle id="other_2_268" type="truck" depart="19602.00" departLane="best">
        <route edges="962 1348#1 1348#2 1348#3 1348#4 1348#5 1348#6 1348#7 1340#3 1340#4 -1250#5 -1250#4 -1252#11 -1252#10 -1252#9 -1252#8 -1252#7 -1252#6 -1252#5 917#0 917#2 917#3 917#4"/>
    </vehicle>
    <vehicle id="other_GW1_425" type="emergency" depart="19615.00" departLane="best">
        <route edges="430#0 430#1 156 1570#0 217 845#3 442 341#1 -1363#3 -1363#2 -1363#1 -1363#0 1379#6 1379#7 1361#1 650#0 -652#2 -652#1 -652#0 1319#0 1319#1 1494#0 1494#1 1494#2 1320 1315#1 1315#2 -542#1 -542#0 -1312#5 -1312#4 -1312#3 -1312#2 -1312#1 -1312#0 137 1314 -1311#0 -138 -1313#1 -1313#0 -139 -1340#5 -1250#5 -1250#4 -1250#3 -1250#2 -1250#1 -1250#0 850#3 -1327#1 -1327#0 563#0 563#1 563#2 563#3 563#4 563#5"/>
    </vehicle>
    <vehicle id="other_2_769" type="truck" depart="19634.00" departLane="best">
        <route edges="1371 728#1 728#2 728#3 728#4 728#5 730#8 717 698 1484#2 1484#3 743#0 743#1 888#1 1480#0 1480#1 1480#2 1480#3 741#0 741#1 -1194#2 -1194#1 -13#1 -13#0 -684 674"/>
    </vehicle>
    <vehicle id="other_2_5" type="coach" depart="19644.00" departLane="best">
        <route edges="544 -1419#7 -1419#6 1315#0 1315#1 1315#2 -542#1 -542#0 -1312#5 -1312#4 -1312#3 -1312#2 -1312#1 -1312#0 137 1314 -1311#0 -138 -1313#1 -1313#0 -139 -1340#5 -1250#5 -1250#4 -1252#11 -1252#10 -1252#9 -1252#8 -1252#7 -1252#6 -1252#5 -1252#4 -1252#2 -1252#1 -1252#0 -1343#1 -1343#0 1341#14 1341#15 1341#16 918 920 622#0 622#1 623#0"/>
    </vehicle>
    <vehicle id="other_2_486" type="emergency" depart="19650.00" departLane="best">
        <route edges="1412#0 1412#1 881 -1373#1 -1373#0 924#1 925 729 717 698 1484#2 1484#3 743#0 743#1 -707#1 712#0 712#1 -1480#2 -1480#1 -1480#0"/>
    </vehicle>
    <vehicle id="other_3_59" type="coach" depart="19732.00" departLane="best">
        <route edges="1405#0 1405#1 194 1263 195 -1404#27 -1404#26 -1404#25 -1404#24 -1404#23 -1404#21 -1404#20 -1404#19 -1404#18 -1404#17 -1404#16 -1404#13 -1404#12 -1404#11 -1404#10 929#0 929#1 929#2 929#3 929#4 929#5 929#6 929#7 298#2 816#0 816#1 816#2 193 -787#5 -787#4 -787#3 -787#2 -787#1 -787#0 1484#3 1484#1 -698 -717 -730#8 -730#7 -730#6 -730#5"/>
    </vehicle>
    <vehicle id="other_2_342" type="delivery" depart="19811.00" departLane="best">
        <route edges="-1404#2 -1404#1 -1404#0 315 162 316#0 316#1 201 211#3 211#4 202 205#3 -197 -747#2 -747#1 -747#0 732#4 732#5 857#0 857#1 -726#2 -726#1 -726#0 691#0 691#2 691#3 691#4 691#5 -618#1 -618#0 582#1 582#2 582#3 582#4 582#5 582#6 582#7 582#8 582#9 582#10 582#11 519#1 519#2 519#3 105 350 351#1 351#2 529#0 529#1 529#2 -212 -884#1 352 -353#1 -353#0 -352 884#1 212"/>
    </vehicle>
    <vehicle id="other_GW1_432" type="emergency" depart="19814.00" departLane="best">
        <route edges="420 148 1563 149 1561 164 422 83 419#0 431 469 415#3 415#4 1309#0 1309#1 1309#2 1309#3 1309#4 1309#5 1309#6 1309#7 -1311#1 -1311#0 -138 -1313#1 -1313#0 -139 -1340#5 -1250#5 -1250#4 -1252#11 -1252#10 -1252#9 -1252#8 -1252#7 -1252#6 -1252#5 -1252#4 -1252#2 -1252#1 -1252#0 -1343#1 -1343#0 1341#14 1341#15 1341#16 918 920 622#0 622#1 622#2 622#3 617#3 617#4 617#5 619 620 582#1 582#2 582#3 576 868 566 574 589 568 -582#8 -582#7 -582#6 -582#5"/>
    </vehicle>
    <vehicle id="other_2_61" type="truck" depart="19833.00" departLane="best">
        <route edges="-1368#0 1372#2 1372#3 1372#4 1372#5 809#1 -192 808#0 808#1 295#0 295#1 295#2 818#0 818#1 213 299 10 318 812#2 -208 -893 902#0 902#1 -903 790#0 790#1"/>
    </vehicle>
    <vehicle id="other_GW1_88" type="emergency" depart="19851.00" departLane="best">
        <route edges="1406 196 844 145 1405#0 1405#1 194 1263 195 -1404#27 -1404#26 -1404#25 -1404#24 -1404#23 -1404#21 -1404#20 -1404#19 -1404#18 -1404#17 -1404#16 -1404#13 -1404#12 -1404#11 -1404#10 -1404#9 -1404#8 -1404#7 -1404#6 -1404#5 -1404#3 -1404#2 -1404#1 -1404#0 315 162 316#0 316#1 201 211#3 211#4 202 205#3 205#0 163 320 81 -281 -185 710 184 716 183 677 182 178 108 584#0 584#1 257#2 -521#1 -521#0 -106 499#0 499#1 499#2 495#0 -487 -491#0 -101 -499#3 -499#2"/>
    </vehicle>
    <vehicle id="other_1_804" type="emergency" depart="19861.00" departLane="best">
        <route edges="1308#1 1308#2 1308#3 1308#4 1308#5 502#1 502#2 494#2 494#3 494#4 351#2 351#3 351#4 -350 -105 -519#3 -519#2 -519#1 -519#0 -582#10 -582#9 -582#8 -582#7 -582#6 -582#5 -582#4 -582#3 -582#2 -582#1 618#0 618#1 -691#5 -691#4 -691#3 -691#2 -691#0 726#0 726#1 726#2 857#2 857#3 736 879#1 721#0 -747#1"/>
    </vehicle>
    <vehicle id="other_GW1_347" type="emergency" depart="19866.00" departLane="best">
        <route edges="1406 196 844 145 1405#0 1405#1 194 1263 195 -1404#27 -1404#26 -1404#25 -1404#24 -1404#23 -1404#21 -1404#20 -1404#19 -1404#18 -1404#17 -1404#16 -1404#13 -1404#12 -1404#11 -1404#10 -1404#9 -1404#8 -1404#7 -1404#6 -1404#5 -1404#3 -1404#2 -1404#1 -1404#0 315 162 316#0 316#1 201 211#3 211#4 202 205#3 -197 -747#2 -747#1 -747#0 732#4 -727"/>
    </vehicle>
    <vehicle id="other_1_427" type="trailer" depart="19868.00" departLane="best">
        <route edges="360#5 360#0 360#1 440#0 440#1 440#2 440#3 440#4 440#6 440#8 569#4 585#3 585#4 174 -182 -677 -183 -716 -184 -710 185 281 -81 362 204 205#2 -202 211#1 211#2 211#3 17 15#0 16 887 316#0 -856#2 -856#1 -856#0 298#0 -929#7 -929#6"/>
    </vehicle>
    <vehicle id="other_2_189" type="delivery" depart="19889.00" departLane="best">
        <route edges="627#1 627#2 627#3 -617#3 -617#2 -617#1 -617#0 111 862#0 709 701#2 888#0 888#1 1480#0 1480#1 1480#2 1480#3 741#0 741#1 879#11 878#1 878#2 -737#2 -737#0 15#6 15#7 15#0 16 887 -162 -315 10 318 812#2 -208 -893 902#0 902#1 -903 790#0 790#1 790#2 293#0 293#1 -293#4 291 293#3 293#4 -293#1"/>
    </vehicle>
    <vehicle id="other_2_330" type="emergency" depart="20023.00" departLane="best">
        <route edges="-1330 -1344 -1336 -1331 1338#5 1338#6 1338#7 1338#8 1338#9 -1252#2 -1252#1 -1252#0 -1343#1 -1343#0 1341#14 1341#15 1341#16 918 920 622#0 622#1 622#2 622#3 696 -683#1 -683#0"/>
    </vehicle>
    <vehicle id="other_GW1_282" type="emergency" depart="20028.00" departLane="best">
        <route edges="1406 196 844 145 1405#0 1405#1 194 1263 195 -1404#27 -1404#26 -1404#25 -1404#24 -1404#23 -1404#21 -1404#20 -1404#19 -1404#18 -1404#17 -1404#16 -1404#13 -1404#12 -1404#11 -1404#10 -1404#9 -1404#8 -1404#7 -1404#6 -1404#5 -1404#3 -1404#2 -1404#1 -1404#0 315 162 316#0 316#1 201 211#3 211#4 202 205#3 -197 -747#2 -747#1 -747#0 732#4 732#5 857#0 857#1 -726#2 -726#1 -726#0 691#0 691#2 691#3 691#4 691#5 -618#1 -618#0 582#1 582#2 582#3 582#4 582#5 582#6 582#7 582#8 582#9 582#10 582#11 519#1 519#2 524#0"/>
    </vehicle>
    <vehicle id="other_GW1_380" type="truck" depart="20030.00" departLane="best">
        <route edges="1406 196 844 145 1405#0 1405#1 194 1263 195 -1404#27 -1404#26 -1404#25 -1404#24 -1404#23 -1404#21 -1404#20 -1404#19 -1404#18 -1404#17 -1404#16 -1404#13 -1404#12 -1404#11 -1404#10 -1404#9 -1404#8 -1404#7 -1404#6 -1404#5 -1404#3 -1404#2 -1404#1 -1404#0 315 162 316#0 316#1 201 211#3 211#4 202 205#3 -197 -747#2 -721#0 879#2 363 365 364"/>
    </vehicle>
    <vehicle id="other_GW2_109" type="delivery" depart="20031.00" departLane="best">
        <route edges="1593 175 -465 -1285#2 -1282#2 -1282#1 -1282#0 -1287#1 -1287#0 851#3 851#0 -468#6 -468#5 -468#3 -468#2 -468#1 -468#0 1300#1 1408#0 1408#1 1408#2 1408#3 1408#4 1408#5 1408#6 1408#7 497#1 243 494#0 494#1 494#2 494#3 494#4 351#2 351#3 351#4 -350 -105 -519#3 -519#2 -519#1 -519#0 -582#10 -582#9 -582#8 -582#7 -582#6 -582#5 -582#4 -582#3 -582#2 -582#1 618#0 618#1 -691#5 -691#4 -691#3 -691#2 -691#0 726#0 726#1 726#2 857#2 857#3 736 879#1 879#2 879#3 879#4 879#5 879#6 879#7 879#8 879#11 878#1 878#2 878#3 -733#3"/>
    </vehicle>
    <vehicle id="other_1_257" type="delivery" depart="20054.00" departLane="best">
        <route edges="283 732#1 732#2 732#3 747#0 282#1 282#2 -700#1 -700#0 -682#1 -682#0 879#7 879#8 879#11 878#1 878#2 878#3 -733#3 -733#2 -733#1 -733#0 -692 777 779 778 -806 783 408 854"/>
    </vehicle>
    <vehicle id="other_1_863" type="truck" depart="20080.00" departLane="best">
        <route edges="111 862#0 862#1 675 112 701#0 735"/>
    </vehicle>
    <vehicle id="other_2_105" type="trailer" depart="20143.00" departLane="best">
        <route edges="1404#19 1404#20 1404#21 836#0 -839 931#1 -1404#23 -1404#21 -1404#20 -1404#19 -1404#18 -1404#17 -1404#16 -1404#13 -1404#12 -1404#11 -1404#10 -1404#9 -1404#8 -1404#7 -1404#6 -1404#5 -1404#3 -1404#2 -1404#1 -1404#0 315 162 316#0 316#1 201 211#3 211#4 202 205#3 -197 879#5 879#6"/>
    </vehicle>
    <vehicle id="other_2_649" type="truck" depart="20184.00" departLane="best">
        <route edges="-1390#4 -1390#3 -1390#2 -1390#1 -1390#0 -1404#13 -1404#12 -1404#11 -1404#10 -1404#9 -1404#8 -1404#7 -1404#6 -1404#5 -1404#3 -1404#2 -1404#1 812#1 812#2 -208 -893 902#0 902#1 -903 790#0 790#1 790#2 790#3 190 -560 -294#1 -294#0"/>
    </vehicle>