<?xml version="1.0" encoding="UTF-8"?>

<!-- generated on Thu May 24 10:07:14 2018 by Eclipse SUMO duarouter Version 629ca040dd
<configuration xmlns:xsi="http://www.w3.org/2001/XMLSchema-instance" xsi:noNamespaceSchemaLocation="http://sumo.dlr.de/xsd/duarouterConfiguration.xsd">

    <input>
        <net-file value="../scenario/in/most.net.xml"/>
        <additional-files value="../scenario/in/add/most.busstops.add.xml,../scenario/in/add/most.trainstops.add.xml,../scenario/in/add/most.parkings.add.xml,../scenario/in/add/basic.vType.xml"/>
        <route-files value="out/most.buses.flows.xml,out/most.trains.flows.xml,out/most.pedestrian.trips.xml"/>
    </input>

    <output>
        <output-file value="../scenario/in/route/most.pedestrian.rou.xml"/>
        <vtype-output value="/dev/null"/>
        <alternatives-output value="../scenario/in/route/most.pedestrian.rou.alt.xml"/>
    </output>

    <processing>
        <ignore-errors value="true"/>
        <max-alternatives value="5"/>
        <remove-loops value="true"/>
        <repair value="true"/>
        <repair.from value="true"/>
        <repair.to value="true"/>
        <routing-threads value="4"/>
        <routing-algorithm value="dijkstra"/>
    </processing>

    <time>
        <begin value="0"/>
        <end value="84600"/>
    </time>

    <report>
        <verbose value="true"/>
        <log value="person.dua.log"/>
    </report>

</configuration>
-->

<routes xmlns:xsi="http://www.w3.org/2001/XMLSchema-instance" xsi:noNamespaceSchemaLocation="http://sumo.dlr.de/xsd/routes_file.xsd">
    <person id="pedestrian_PT2_989" depart="18001.00">
        <walk edges="-303 1571#1 1574 -223#0 -223#1 -223#2" busStop="25315"/> <!-- 25315 -->
        <ride busStop="25298" lines="M3:Turbie" intended="bus_M3:Turbie.0" depart="19650.00"/> <!-- 25298 -->
        <walk edges="-223#8 -927#3 -927#2 -927#1 1131#0 -819#0 -929#7 1119 -812#0 -1404#0 443#0" busStop="25463"/> <!-- Cimetiere -->
        <ride busStop="25391" lines="100:Menton" intended="bus_100:Menton.1" depart="20954.00"/> <!-- Place d'Armes (Charles III) -->
        <walk edges="737#2 878#3 -733#3 -733#2 -733#1 -733#0 -692 679 676 715 719 -782 -866 1241#1"/>
    </person>
    <vehicle id="pedestrian_SH2_431_0" type="shared" depart="triggered">
        <route edges="1404#18 1404#19 1404#20 1404#21 836#0 -839 931#1 -1404#23 -1404#21 -1404#20 -1404#19 -1404#18 -1404#17 -1404#16 -1404#13 -1404#12 -1404#11 -1404#10 -1404#9 -1404#8 -1404#7 -1404#6 -1404#5 -1404#3 -1404#2 -1404#1 -1404#0 315 162 316#0 316#1 201 211#3 17 15#0 15#1 15#2 15#3 15#4 15#5 737#0 737#2 878#3 -733#3 -733#2 -733#1 -733#0 -692 777 779 778 -806 802 801 798 799 861 794"/>
    </vehicle>
    <person id="pedestrian_SH2_431" depart="18014.00">
        <ride from="1404#18" to="794" lines="pedestrian_SH2_431_0"/>
    </person>
    <person id="pedestrian_walk_722" depart="18015.00">
        <walk edges="-514 514 519#2 519#1 582#11 582#10 582#9 582#8 582#7 582#6 582#5 582#4 582#3 582#2 582#1 -618#0 -618#1 858#5 858#4 858#2 858#1 1519 -726#2 857#1 857#0 732#5 732#4 732#3 732#2 732#1 -283 371"/>
    </person>
    <person id="pedestrian_PT1_624" depart="18015.00">
        <walk edges="15#2 15#3 15#4 15#5 -737#0 -737#2 878#2 878#1 879#11 879#8 879#7 -879#6 -879#5 -879#4 -879#3 -879#2 -879#1 1192 -727 732#5" busStop="25369"/> <!-- Princesse Antoinette -->
        <ride busStop="25319" lines="1:SaintRoman" intended="bus_1:SaintRoman.0" depart="18740.00"/> <!-- Portier -->
        <walk edges="569#2 439#0 440#6" busStop="25384"/> <!-- Grimaldi Forum/Villa Sauber -->
        <ride busStop="25359" lines="5:Larvotto" intended="bus_5:Larvotto.0" depart="19601.00"/> <!-- Larvotto -->
        <walk edges="439#9 360#3 360#4 360#5 360#0 -355#2 356"/>
    </person>
    <vehicle id="pedestrian_SH2_265_0" type="shared" depart="triggered">
        <route edges="-609#2 -394#5 -394#3 -394#2 -394#1 -394#0 617#5 619 620 582#1 582#2 582#3 582#4 582#5 582#6 582#7 582#8 582#9 582#10 582#11 519#1 519#2 519#3 105 350 351#1 -494#4 -494#3 -494#2 -502#2 -502#1 -501 -176 506 -104 -860#4"/>
    </vehicle>
    <person id="pedestrian_SH2_265" depart="18018.00">
        <ride from="-609#2" to="-860#4" lines="pedestrian_SH2_265_0"/>
    </person>
    <person id="pedestrian_SH3_248" depart="18023.00">
        <walk edges="-1265 1264 -911#0 -1273 -456 -933#0 1422 1285#2 -1282#2 -1282#1 -1282#0 -1287#1 -1287#0 851#2 1244#4 1244#3 1244#2 1120 1291#2 470 -493#4 1527 1016#1 -489#3 -489#4 1478 -1303#2 -98 244#3 244#2 244#0 360#5 360#4 360#3 439#9 439#8 439#7 439#6 439#5 439#4 439#2 439#0 569#2 -565 -577 -181 -678 -703#2 -703#1 -703#0 857#0 732#5 732#4 732#3 732#2 -732#1 -732#0 -734#4 284#0 1083#0 1083#1 733#0 692 -777 -779 778"/>
    </person>
    <person id="pedestrian_PT2_171" depart="18032.00">
        <walk edges="-980#1 980#1 980#0 1309#6 1309#7 -1311#1 1314 137 -1312#0 -1312#1 -249#0 1029#0 1029#1 -503#1 -503#2 1164 1440 1426 1302#10 1028#2 1028#1 1028#0 567#1 567#0 -519#0" busStop="25404"/> <!-- Place des Moulins -->
        <ride busStop="25338" lines="1:Monaco" intended="bus_1:Monaco.1" depart="19928.00"/> <!-- Monte-Carlo -->
        <walk edges="618#1" busStop="25365"/> <!-- Monte-Carlo (TAM) -->
        <ride busStop="25349" lines="100:Nice" intended="bus_100:Nice.0" depart="20220.00"/> <!-- Place d'Armes (TAM) -->
        <walk edges="-737#2 -737#0 15#5 15#4 1225 1476#0"/>
    </person>
    <person id="pedestrian_SH2_701" depart="18040.00">
        <walk edges="1166 1028#1 -520#9 416#1 -562#6 1326#0"/>
    </person>
    <person id="pedestrian_PT2_1594" depart="18044.00">
        <walk edges="1058 -600 630#2 594 447 561#0 562#0 562#1 562#2 562#3 1038 -582#10 582#11 519#1 519#2 514 -514"/>
    </person>
    <person id="pedestrian_walk_596" depart="18071.00">
        <walk edges="-712#0 -712#1 -1480#3 997 879#6 682#0 682#1 1190"/>
    </person>
    <person id="pedestrian_PT2_25" depart="18071.00">
        <walk edges="-627#0 627#1 627#2 627#3 617#3 -696 683#1 1086 -858#1 1519 -726#2"/>
    </person>
    <person id="pedestrian_PT1_340" depart="18077.00">
        <walk edges="-630#1 621#1 1067 -582#1 618#0 618#1 -858#5 -858#4 -858#2 -858#1 1519"/>
    </person>
    <person id="pedestrian_PT2_1844" depart="18088.00">
        <walk edges="-940 -1413#3 -1413#4 415#1 -1309#0 -1309#1 -1309#2 -1309#3 -1309#4 -1309#5 1309#6 1309#7 -1311#1 1314 137 -1312#0 -1312#1 -249#0 1029#0 1029#1 -503#1 -503#2 1164 1440 1426 1302#10 1028#2 1028#1 1028#0 567#1 567#0 -519#0" busStop="25404"/> <!-- Place des Moulins -->
        <ride busStop="25338" lines="1:Monaco" intended="bus_1:Monaco.3" depart="22328.00"/> <!-- Monte-Carlo -->
        <walk edges="618#1" busStop="25365"/> <!-- Monte-Carlo (TAM) -->
        <ride busStop="25336" lines="100:Nice" intended="bus_100:Nice.2" depart="22620.00"/> <!-- Place Sainte-Devote (Gare) -->
        <walk edges="736 857#4 857#0 703#0 852 705#4 705#3 705#2 -744 713#0"/>
    </person>
    <person id="pedestrian_walk_1023" depart="18098.00">
        <walk edges="520#2 1027 520#6 520#7 520#8 520#9 416#1 -562#6 1326#0 1124 -932#0 -932#1 -563#1 -563#2 563#3 563#4 563#5 1334#0 1582 -1346 -601#1 -609#2 -609#1 -609#0 -625#1 919 920 1486#3 1486#2 1486#1 1486#0 -1332#1 1065 890#1 890#2 890#3 890#4 890#5 729 -730#8 -730#7 1079#2 1079#1 1079#0 746#1 746#2 -752#4 -752#3 -752#2 -752#1 -752#0 1372#5 809#1"/>
    </person>
    <person id="pedestrian_walk_22" depart="18100.00">
        <walk edges="863#0 1518"/>
    </person>
    <person id="pedestrian_PT1_1684" depart="18107.00">
        <walk edges="701#1 -709 862#1 675"/>
    </person>
    <person id="pedestrian_PT2_908" depart="18111.00">
        <walk edges="829#6 1507#2 1507#1 1507#0 -1404#2 1404#1 812#0 1119 929#7 298#2 816#0 816#1" busStop="25331"/> <!-- Hopital -->
        <ride busStop="25318" lines="5:Larvotto" intended="bus_5:Larvotto.0" depart="18832.00"/> <!-- Monte-Carlo (TAM) | Monte-Carlo (Tourisme) -->
        <ride busStop="25401" lines="1:SaintRoman" intended="bus_1:SaintRoman.0" depart="19378.00"/> <!-- Carmes -->
        <walk edges="-494#3 1523 529#1 1024#0 1026 860#0 -855#0"/>
    </person>
    <person id="pedestrian_PT2_1351" depart="18114.00">
        <walk edges="1408#7 497#1 243 494#0 494#1 494#2 494#3 494#4" busStop="25409"/> <!-- Carmes -->
        <ride busStop="25373" lines="4:Fontvieille" intended="bus_4:Fontvieille.0" depart="18938.00"/> <!-- Roqueville -->
        <walk edges="-617#3 -696 683#1 1086 -858#1 1519 -726#2 857#1 703#0 852 -705#4 -705#3"/>
    </person>
    <person id="pedestrian_PT2_2219" depart="18129.00">
        <walk edges="-643#0 -1248#7 633#0 1155#1 1155#0 -1377#10 -1377#9 979#0 979#1 979#2 979#3 1467 1089#0 1089#1 1089#2 1529#1 1529#0 1092#0 1092#1 1072 787#2 1081 888#4 888#5 -711#1 740#0 -740#1 15#6 15#5 15#4 15#3 15#2 15#1"/>
    </person>
    <person id="pedestrian_PT1_2148" depart="18132.00">
        <walk edges="-522 -520#8 -520#9 -416#1 562#6 -1326#0 -1326#1 -1326#2 -1326#3"/>
    </person>
    <person id="pedestrian_PT2_917" depart="18136.00">
        <walk edges="-849 1302#8 1302#9 1302#10 1028#2 520#9 -416#1 562#6 562#5 562#4 1038 582#9 582#8 582#7 582#6 582#5 582#4 583#2"/>
    </person>
    <person id="pedestrian_PT1_2142" depart="18153.00">
        <walk edges="373 1091 1200#0 1529#0 1092#0 1092#1 1072 787#2 -787#1 -787#0 1484#3 743#0 743#1 888#0 863#0"/>
    </person>
    <person id="pedestrian_PT1_1854" depart="18155.00">
        <walk edges="-746#0 1079#0 1079#1 1079#2 730#7 730#8 717 1073#0 1073#1 -743#1 888#0 863#0 1518 857#2 726#2 726#1 726#0"/>
    </person>
    <person id="pedestrian_PT1_419" depart="18165.00">
        <walk edges="709 862#1 -730#11 730#10 730#9 730#8 730#7 730#6"/>
    </person>
    <person id="pedestrian_walk_1579" depart="18171.00">
        <walk edges="857#2 857#1 857#0 732#5 732#4 732#3 732#2 -732#1 -732#0 -734#4 284#0 1083#0 1083#1 733#0 -692 679 -688 -689 -775"/>
    </person>
    <person id="pedestrian_PT2_2215" depart="18177.00">
        <walk edges="-1349#3 1349#4 1128#0 1127 -1330 1044 -1252#0 1583 -1341#15 1063 -625#0 -625#1 -609#0 -609#1 609#2 601#1 -601#2"/>
    </person>
    <person id="pedestrian_PT1_1281" depart="18198.00">
        <walk edges="-705#1 -705#2 -705#3 -705#4 852 703#0 857#1 -726#2 -726#1" busStop="25370"/> <!-- Kennedy | Ostende -->
        <ride busStop="25318" lines="2:Jardin" intended="bus_2:Jardin.0" depart="18988.00"/> <!-- Monte-Carlo (TAM) | Monte-Carlo (Tourisme) -->
        <walk edges="582#3 582#4 -582#5 -582#6 -582#7" busStop="25337"/> <!-- Saint-Charles -->
        <ride busStop="25403" lines="1:SaintRoman" intended="bus_1:SaintRoman.0" depart="19456.00"/> <!-- La Rousse -->
        <walk edges="519#2 524#0 524#1 -520#0 351#4 351#1"/>
    </person>
    <person id="pedestrian_SH2_541" depart="18202.00">
        <walk edges="1497 1377#7 1377#6 1377#5 1463#7 1463#6 1463#5 1463#4 1463#3 1463#2 1463#1 1543#0 1557 -1375 1371 728#1 1078 -730#5 1087 787#1 1081 888#4 888#5 -711#1 740#0 -740#1 15#6 15#5 15#4 796 1576 791#4 791#5 1169#0 -885#0 -803#1 -790#0 -811#1 -811#0"/>
    </person>
    <person id="pedestrian_PT2_2004" depart="18231.00">
        <walk edges="817#1 817#0 895#2 895#1 800#0 800#1 800#2 791#5 791#0 791#1 791#2 1575" busStop="25379"/> <!-- Port de Fontvieille -->
        <ride busStop="25369" lines="3:Otto" intended="bus_3:Otto.0" depart="19110.00"/> <!-- Princesse Antoinette -->
        <ride busStop="25319" lines="6:Larvotto" intended="bus_6:Larvotto.0" depart="19411.00"/> <!-- Portier -->
        <walk edges="569#2 -439#0 573#1 573#0"/>
    </person>
    <vehicle id="pedestrian_SH3_237_0" type="shared" depart="triggered">
        <route edges="-1269#1 -1269#0 911#1 456 -913 -1422 -1285#2 -1282#2 -1282#1 -1282#0 -1287#1 -1287#0 851#3 851#0 -468#6 -468#5 -468#3 -468#2 -468#1 -468#0 1300#1 1408#0 1408#1 1408#2 1408#3 1408#4 1408#5 1408#6 1408#7 497#1 243 494#0 494#1 494#2 494#3 494#4 351#2 351#3 351#4 -350 -105 -519#3 -519#2 -519#1 -519#0 -582#10 -582#9 -582#8 -582#7 -582#6 -582#5 -582#4 -582#3 -582#2 -582#1 618#0 618#1 -691#5 -691#4 -691#3 -691#2 -691#0 -686"/>
    </vehicle>
    <person id="pedestrian_SH3_237" depart="18240.00">
        <ride from="-1269#1" to="-686" lines="pedestrian_SH3_237_0"/>
    </person>
    <vehicle id="pedestrian_SH3_264_0" type="shared" depart="triggered">
        <route edges="-1421 -1264 -1269#0 911#1 456 -913 -1422 -1285#2 -1282#2 -1282#1 -1282#0 -1287#1 -1287#0 851#3 851#0 -468#6 -468#5 -468#3 -468#2 -468#1 -468#0 1300#1 1408#0 1408#1 1408#2 1408#3 1408#4 1408#5 1408#6 1408#7 497#1 243 494#0 494#1 494#2 494#3 494#4 351#2 351#3 351#4 -350 -105 -519#3 -519#2 -519#1 -519#0 -582#10 -582#9 -582#8 -582#7 -582#6 -582#5 -582#4 630#1 630#2 630#3 -617#5 -617#4 -617#3 -617#2 -617#1 -617#0 111 862#0 709 701#2 888#0 -707#1 712#0 712#1 -1480#2 -1480#1"/>
    </vehicle>
    <person id="pedestrian_SH3_264" depart="18273.00">
        <ride from="-1421" to="-1480#1" lines="pedestrian_SH3_264_0"/>
    </person>
    <person id="pedestrian_PT1_712" depart="18279.00">
        <walk edges="862#0 862#1 -730#11 864#2 864#1 864#0"/>
    </person>
    <person id="pedestrian_walk_754" depart="18298.00">
        <walk edges="726#2 857#2 1518 863#1 -735"/>
    </person>
    <person id="pedestrian_PT1_1156" depart="18299.00">
        <walk edges="-1404#0 -812#0 1119 929#7 298#2 816#0 816#1" busStop="25331"/> <!-- Hopital -->
        <ride busStop="25399" lines="5:Larvotto" intended="bus_5:Larvotto.0" depart="18832.00"/> <!-- Belgique -->
        <walk edges="864#2 -730#11 862#1 -709 701#1 -735 863#2"/>
    </person>
    <person id="pedestrian_PT1_12" depart="18304.00">
        <walk edges="-709 701#1 -735 863#1 1518 857#3 736 879#1 721#0 721#1 721#2 1190 1080 -1194#1 -13#1 -13#0 718" busStop="25394"/> <!-- Place d'Armes (Port) -->
        <ride busStop="25392" lines="1:Monaco" intended="bus_1:Monaco.0" depart="19436.00"/> <!-- Monaco Ville (le Rocher) -->
        <walk edges="-676 688 1201 779 776 -806 783"/>
    </person>
    <person id="pedestrian_walk_686" depart="18316.00">
        <walk edges="863#1 863#0 888#0 743#1 743#0 1484#3 -787#0 -787#1 -787#2 1084 -739#2 739#3"/>
    </person>
    <person id="pedestrian_SH3_415" depart="18327.00">
        <walk edges="1421 1264 -911#0 -1273 -456 -933#0 1422 1285#2 -1282#2 -1282#1 -1282#0 -1287#1 -1287#0 851#2 1244#4 1244#3 1244#2 1120 1291#2 470 -493#4 1527 1016#1 -489#3 -489#4 1478 -1303#2 -98 244#3 244#2 244#0 360#5 360#4 360#3 439#9 439#8 439#7 439#6 439#5 439#4 439#2 439#0 569#2 -565 -577 -181 -678 -703#2 -703#1 -703#0 857#1 857#2 857#3 736 879#1 879#2 879#3 879#4 879#5 879#6 879#7 879#8 879#11 878#1 878#2 -737#2 -737#0 15#5 15#4 796 -1576 791#3 791#2 791#1 -348 358#3 -294#0 -294#1 -294#2 -294#3 -294#4 1220#0 1220#3"/>
    </person>
    <person id="pedestrian_walk_912" depart="18330.00">
        <walk edges="1519 858#1 858#2 858#4 632 -580 691#2 588#2 -588#1 -564#0 -593#5 -593#4 -592#0 -592#1 1173#2 -593#0 -586"/>
    </person>
    <vehicle id="pedestrian_SH1_119_0" type="shared" depart="triggered">
        <route edges="-907#0 -711#1 724 878#2 878#3 -733#3"/>
    </vehicle>
    <person id="pedestrian_SH1_119" depart="18361.00">
        <ride from="-907#0" to="-733#3" lines="pedestrian_SH1_119_0"/>
    </person>
    <person id="pedestrian_PT2_1473" depart="18362.00">
        <walk edges="-829#6 1507#2 1507#1 1507#0 -1404#2 1404#1 812#0 1119 -929#7 -819#0 1131#0 1131#1 295#2 818#0 818#1 -908 -730#0 1227 1229#1 1226 -809#0 -752#0"/>
    </person>
    <vehicle id="pedestrian_SH3_48_0" type="shared" depart="triggered">
        <route edges="436 221#1 180 771 85 441 290 1578 223#0 223#1 223#2 223#3 223#4 223#5 223#6 223#7 223#8 223#9 223#10 295#1 295#2 818#0 818#1 908 730#0 730#1 730#2 730#3 730#4 730#5 730#6 730#7 730#8 730#9 730#10 730#11 675 112 701#0 735 863#2 116 617#0 683#0 683#1 683#2 683#3 632 580 -691#2 -588#2 -588#1 -564#0 -593#5 -593#4 -593#3 -593#2 -593#1 -593#0 586 569#1 569#2 439#0 439#2 439#4 439#5 439#6 439#7 439#8 439#9 360#3 360#4"/>
    </vehicle>
    <person id="pedestrian_SH3_48" depart="18362.00">
        <ride from="436" to="360#4" lines="pedestrian_SH3_48_0"/>
    </person>
    <vehicle id="pedestrian_SH2_341_0" type="shared" depart="triggered">
        <route edges="-338#1 -338#0 -980#0 1309#6 1309#7 -1311#1 -1311#0 -138 -1313#1 -1313#0 -139 -1340#5 -1250#5 -1250#4 -1252#11 -1252#10 -1252#9 -1252#8 -1252#7 -1252#6 -1252#5 -1252#4 -1252#2 -1252#1 -1252#0 -1343#1 -1343#0 1341#14 1341#15 1341#16 918 920 622#0 622#1 622#2 622#3 696 683#2 -455 -858#2 -858#1 -858#0 110 720 726#1 726#2 857#2 857#3 857#4 857#0 703#0 852 -705#4 367"/>
    </vehicle>
    <person id="pedestrian_SH2_341" depart="18366.00">
        <ride from="-338#1" to="367" lines="pedestrian_SH2_341_0"/>
    </person>
    <vehicle id="pedestrian_SH2_844_0" type="shared" depart="triggered">
        <route edges="1302#0 1302#1 1302#2 1302#3 1302#4 1302#5 1302#6 1302#7 1302#8 1302#9 1302#10 1302#11 1302#12 1302#13 1302#14 850#1 850#2 850#3 -1327#1 -1327#0 563#0 563#1 563#2 563#3 563#4 563#5 1334#0 1334#1 1334#2 595 630#2 630#3 619 620 572#0 572#1 572#2 -593#5 -593#4 -593#3 -593#2 -593#1 -593#0 586 569#1 569#2"/>
    </vehicle>
    <person id="pedestrian_SH2_844" depart="18381.00">
        <ride from="1302#0" to="569#2" busStop="25319" lines="pedestrian_SH2_844_0"/> <!-- Portier -->
        <walk edges="569#2 -569#3 569#4 -585#2"/>
    </person>
    <person id="pedestrian_SH1_20" depart="18383.00">
        <walk edges="701#2 701#1 -735 863#2"/>
    </person>
    <person id="pedestrian_walk_137" depart="18398.00">
        <walk edges="581 583#1 583#2 582#4 582#5 582#6 582#7 582#8 582#9 582#10 567#0 567#1 1028#0 1166 522 -520#7 -855#4 -855#3 -855#2 -855#1 -855#0 884#0 884#1 212"/>
    </person>
    <person id="pedestrian_PT1_2037" depart="18399.00">
        <walk edges="888#1 888#0 701#2 709"/>
    </person>
    <vehicle id="pedestrian_SH2_428_0" type="shared" depart="triggered">
        <route edges="630#1 594 447 561#0 561#1 561#2 1324#0 1324#1 1324#2 1324#3 1324#4 932#0 932#1 563#1 563#2 563#3"/>
    </vehicle>
    <person id="pedestrian_SH2_428" depart="18409.00">
        <ride from="630#1" to="563#3" lines="pedestrian_SH2_428_0"/>
        <walk edges="563#3 1448#3 1448#2 -1341#5 1341#6 1341#7 1043#1"/>
    </person>
    <person id="pedestrian_walk_500" depart="18416.00">
        <walk edges="862#0 369#0 369#1 -617#0 -617#1 -617#2 -617#3 -617#4"/>
    </person>
    <person id="pedestrian_walk_1676" depart="18423.00">
        <walk edges="-1481 -593#0 1173#2 -592#1 -592#0 -593#4 -593#5 -564#0 -588#1 588#2 691#2 -580 632 858#4 858#2 858#1 1519"/>
    </person>
    <person id="pedestrian_SH3_57" depart="18426.00">
        <walk edges="310#3 310#2 310#1 310#0 313#1 1363#3 1363#2 1363#1 1363#0 -1379#6 -1361#0 -1352#0 -650#0 652#2 -652#1 -652#0 1319#0 1319#1 1494#0 1494#1 1248#0 1248#1 1248#2 1248#3 1248#4 1248#5 1248#6 633#0 1155#1 1155#0 -1377#10 -1377#9 979#0 979#1 979#2 979#3 1467 1089#0 1089#1 1089#2 1372#2 -1372#3"/>
    </person>
    <person id="pedestrian_walk_1295" depart="18450.00">
        <walk edges="-572#2 593#5 593#4 593#3 575#0 575#1 1037 -585#2 569#4 440#8 440#6 440#4 440#3 440#2 -440#1"/>
    </person>
    <person id="pedestrian_PT2_635" depart="18452.00">
        <walk edges="-818#1 909 -730#0 -730#1 730#2 730#3 1072 787#2 1081 -888#3 -888#2" busStop="25376"/> <!-- Castelleretto -->
        <ride busStop="25403" lines="4:SaintRoman" intended="bus_4:SaintRoman.0" depart="19440.00"/> <!-- La Rousse -->
        <walk edges="519#2 1021 28 -520#5 -520#6"/>
    </person>
    <vehicle id="pedestrian_SH3_781_0" type="shared" depart="triggered">
        <route edges="-1273 -448 -87 1274 456 -913 -1422 -1285#2 -1282#2 -1282#1 -1282#0 -1287#1 -1287#0 851#3 851#0 -468#6 -468#5 -468#3 -468#2 -468#1 -468#0 1300#1 1408#0 1408#1 1408#2 1408#3 1408#4 1408#5 1408#6 1408#7 497#1 243 494#0 494#1 494#2 494#3 494#4"/>
    </vehicle>
    <person id="pedestrian_SH3_781" depart="18465.00">
        <ride from="-1273" to="494#4" busStop="25409" lines="pedestrian_SH3_781_0"/> <!-- Carmes -->
        <walk edges="494#4 1523 529#1 1024#0 1026"/>
    </person>
    <vehicle id="pedestrian_SH2_479_0" type="shared" depart="triggered">
        <route edges="1316#3 -538#3 -538#2 -538#1 -538#0 -1352#1 650#0 -652#2 -652#1 -652#0 1319#0 1319#1 1494#0 1494#1 1248#0 1248#1 1248#2 1248#3 1248#4 1248#5 1248#6 1248#7 1248#8 1248#9 1248#10 1248#11 1248#12 -1256#7 -1256#6 -1256#5 -1256#4 -1256#3 -1256#2 -1256#1 -1256#0 -1372#0 -1369#3 -1369#2 -1369#1 1371 728#1 728#2 728#3 728#4 728#5 730#8 717 698 1484#2 1484#3 743#0 743#1 888#1 1480#0 1480#1 1480#2 1480#3 741#0 741#1 879#11 878#1 878#2 878#3 -733#3 -733#2 -733#1 -733#0 -692 777 779 778 -776 -779 -777"/>
    </vehicle>
    <person id="pedestrian_SH2_479" depart="18474.00">
        <ride from="1316#3" to="-777" busStop="25480" lines="pedestrian_SH2_479_0"/> <!-- Musee Oceanographique -->
        <walk edges="-777 -779 -778 1219#0"/>
    </person>
    <person id="pedestrian_PT2_281" depart="18482.00">
        <walk edges="-1477 -1408#6 -1408#7 497#1 243 494#0" busStop="25439"/> <!-- Saint-Roman -->
        <ride busStop="25410" lines="4:Fontvieille" intended="bus_4:Fontvieille.0" depart="18867.00"/> <!-- Saint-Charles -->
        <walk edges="-568 582#8 1039#0 1039#1 1035#1 1035#0 -585#1 -585#2 569#4"/>
    </person>
    <person id="pedestrian_PT1_743" depart="18499.00">
        <walk edges="-927#0 1131#0 -819#0 -929#7 1119 -812#0 -877 315" busStop="25464"/> <!-- Cimetiere -->
        <ride busStop="25312" lines="4:SaintRoman" intended="bus_4:SaintRoman.0" depart="19064.00"/> <!-- Louis Aureglia -->
        <walk edges="-888#1 -888#0 863#0 863#1 863#2"/>
    </person>
    <person id="pedestrian_SH3_447" depart="18501.00">
        <walk edges="1269#1 -1269#0 911#1 456 -913 -1422 -1285#2 -1282#2 -1282#1 -1282#0 -1287#1 -1287#0 851#3 851#0 -468#6 -468#5 -468#3 -468#2 -468#1 -468#0 1300#1 1408#0 1408#1 1408#2 1408#3 -1408#4 -1408#5 -1408#6 -1408#7 497#1 243 494#0 494#1 494#2 494#3 494#4 351#2 351#3 -520#0 524#1 524#0 -519#2 -519#1 -519#0 -582#10 1038 562#3 562#2 562#1 562#0 561#0 447 594 -630#2 -630#3 617#5 617#4 617#3"/>
    </person>
    <person id="pedestrian_walk_1255" depart="18502.00">
        <walk edges="1005 -520#8 -520#9 416#1 -562#6 1326#0 1124 -932#0 -932#1 -563#1 -563#2 563#3 563#4 563#5 1334#0 1582 -1346 -601#1 -609#2 -609#1 -609#0 -625#1 919 920 1486#3 1486#2 1486#1 1486#0 -1332#1 1065 -890#1 -890#2 -890#3 -890#4 -890#5 -729 -717 1073#0 864#0 1484#3 -787#0 -787#1 -787#2 -787#3 748#6 1088"/>
    </person>
    <person id="pedestrian_PT1_459" depart="18502.00">
        <walk edges="748#4 -739#0 -739#1 1084 -787#2 -787#1 -787#0" busStop="25382"/> <!-- Bosio -->
        <ride busStop="25318" lines="5:Larvotto" intended="bus_5:Larvotto.0" depart="19011.00"/> <!-- Monte-Carlo (TAM) | Monte-Carlo (Tourisme) -->
        <ride busStop="25403" lines="1:SaintRoman" intended="bus_1:SaintRoman.0" depart="19378.00"/> <!-- La Rousse -->
        <walk edges="519#2 -519#1"/>
    </person>
    <person id="pedestrian_PT2_1917" depart="18515.00">
        <walk edges="-519#0" busStop="25404"/> <!-- Place des Moulins -->
        <ride busStop="25338" lines="1:Monaco" intended="bus_1:Monaco.0" depart="18728.00"/> <!-- Monte-Carlo -->
        <walk edges="618#1 618#0 -582#1 1067 -621#1 595 1334#2 1334#1 1582 1591 1586#1 1586#0 401"/>
    </person>
    <vehicle id="pedestrian_SH1_666_0" type="shared" depart="triggered">
        <route edges="-499#2 -499#1 -499#0 106 521#0 521#1 257#3 257#0 579#0 579#1 579#2 579#3 579#4 579#5 579#6 -583#1 -583#0 593#5 564#0 588#1 588#2 691#2 -580 -632 -683#3 -683#2 -683#1 -683#0 -617#0 111 862#0 709 701#2 888#0 888#1 1480#0 1480#1"/>
    </vehicle>
    <person id="pedestrian_SH1_666" depart="18517.00">
        <ride from="-499#2" to="1480#1" lines="pedestrian_SH1_666_0"/>
    </person>
    <person id="pedestrian_walk_249" depart="18532.00">
        <walk edges="697 -580 691#3 691#4 1172#0 1172#1 -604#2 -618#0 582#1 582#2 582#3 582#4 582#5 582#6 582#7 582#8 582#9 582#10 567#0 567#1 1028#0 1166 -522 520#7"/>
    </person>
    <person id="pedestrian_PT1_1450" depart="18550.00">
        <walk edges="521#0 521#1 257#3 257#0 579#0 579#1 1522 -582#9 -568" busStop="25410"/> <!-- Saint-Charles -->
        <ride busStop="25375" lines="4:Fontvieille" intended="bus_4:Fontvieille.0" depart="19213.00"/> <!-- Louis Aureglia -->
        <walk edges="888#1 888#0 701#2 709 862#0"/>
    </person>
    <person id="pedestrian_PT2_1450" depart="18550.00">
        <walk edges="1315#2 -542#1 -542#0 -1312#5 -1312#4 -1312#3 -1312#2 249#0 1029#0 1029#1 -503#1 -503#2 1164 1440 1426 1302#10 1028#2 1028#1 1028#0 567#1 567#0 -519#0" busStop="25404"/> <!-- Place des Moulins -->
        <ride busStop="25338" lines="1:Monaco" intended="bus_1:Monaco.2" depart="21128.00"/> <!-- Monte-Carlo -->
        <walk edges="618#1" busStop="25365"/> <!-- Monte-Carlo (TAM) -->
        <ride busStop="25336" lines="100:Nice" intended="bus_100:Nice.1" depart="21420.00"/> <!-- Place Sainte-Devote (Gare) -->
        <walk edges="736 879#1 -879#2"/>
    </person>
    <vehicle id="pedestrian_SH2_631_0" type="shared" depart="triggered">
        <route edges="306#3 223#0 223#1 223#2 223#3 223#4 223#5 223#6 223#7 223#8 -927#3 -927#2 -927#1 -927#0 816#2 193 -787#5 -787#4 -787#3"/>
    </vehicle>
    <person id="pedestrian_SH2_631" depart="18551.00">
        <ride from="306#3" to="-787#3" busStop="25476" lines="pedestrian_SH2_631_0"/> <!-- Parc Princesse Antoinette -->
        <walk edges="-787#3 1084"/>
    </person>
    <person id="pedestrian_PT1_321" depart="18555.00">
        <walk edges="903" busStop="25478"/> <!-- Stade Louis II -->
        <ride busStop="25376" lines="4:SaintRoman" intended="bus_4:SaintRoman.0" depart="18982.00"/> <!-- Castelleretto -->
        <walk edges="-888#2 1073#2 1073#1 1073#0 -717 730#9"/>
    </person>
    <person id="pedestrian_SH2_838" depart="18556.00">
        <walk edges="22 1442#0 860#3"/>
    </person>
    <person id="pedestrian_PT1_660" depart="18562.00">
        <walk edges="-807 807 818#0 295#2 1131#1 1131#0 -819#0 -929#7 1119 -812#0 -1404#0 443#0" busStop="25463"/> <!-- Cimetiere -->
        <ride busStop="25391" lines="100:Menton" intended="bus_100:Menton.0" depart="19754.00"/> <!-- Place d'Armes (Charles III) -->
        <walk edges="737#2 878#3 878#4 695 734#0 734#1 734#2 734#3 734#4 285 371 -371"/>
    </person>
    <person id="pedestrian_PT2_1322" depart="18570.00">
        <walk edges="1493 896 644 603 1348#3 1066 409#0 -641#3 1128#0 1127 -1330 -1344 1427#0 1427#1 1427#2 1427#3 1047#0 1047#1 1047#2 617#1 -683#0 1086 -858#1 1519 726#2 857#2 857#3 736" busStop="25336"/> <!-- Place Sainte-Devote (Gare) -->
        <ride busStop="25349" lines="100:Nice" intended="bus_100:Nice.0" depart="20320.00"/> <!-- Place d'Armes (TAM) -->
        <walk edges="-737#2 878#2 878#1 -879#11 1191#0 1077 13#0"/>
    </person>
    <person id="pedestrian_walk_556" depart="18600.00">
        <walk edges="863#1 1518 857#2 726#2 726#1"/>
    </person>
    <vehicle id="pedestrian_SH3_174_0" type="shared" depart="triggered">
        <route edges="1380#2 1379#1 1379#2 1379#3 1379#4 1379#5 1379#6 1379#7 1361#1 650#0 -652#2 -652#1 -652#0 1319#0 1319#1 1494#0 1494#1 1494#2 1320 1315#1 1315#2 -542#1 -542#0 -1312#5 -1312#4 -1312#3 -1312#2 -1312#1 -1312#0 137 1314 -1311#0 -138 -1313#1 -1313#0 -139 -1340#5 -1250#5 -1250#4 -1252#11 -1252#10 -1252#9 -1252#8 -1252#7 -1252#6 -1252#5 -1252#4 -1252#2 -1252#1 -1252#0 -1343#1 -1343#0 1341#14 1341#15 1341#16 918"/>
    </vehicle>
    <person id="pedestrian_SH3_174" depart="18619.00">
        <ride from="1380#2" to="918" lines="pedestrian_SH3_174_0"/>
    </person>
    <vehicle id="pedestrian_SH3_794_0" type="shared" depart="triggered">
        <route edges="1274 456 -913 -1422 -1285#2 -1282#2 -1282#1 -1282#0 -1287#1 -1287#0 851#3 851#0 -468#6 -468#5 -468#3 -468#2 -468#1 -468#0 1300#1 1408#0 1408#1 1408#2 1408#3 1408#4 1408#5 1408#6 1408#7 497#1 243 494#0 494#1 494#2 494#3 494#4 351#2 351#3 351#4 -350 -105 -519#3 -519#2 -519#1 -519#0 -582#10 -582#9 -582#8 -582#7 -582#6 -582#5 -582#4 630#1 630#2 630#3 -617#5 -617#4 -617#3 -617#2 -617#1 -617#0 111 862#0 862#1 -730#11 -864#2 -864#1 -864#0 1484#1 1484#2 787#0 787#1 787#2 787#3 787#4 787#5 -193 -816#2 -816#1 -816#0 856#0"/>
    </vehicle>
    <person id="pedestrian_SH3_794" depart="18638.00">
        <ride from="1274" to="856#0" busStop="25393" lines="pedestrian_SH3_794_0"/> <!-- Athanee -->
        <walk edges="856#0 298#2 -819#0"/>
    </person>
    <vehicle id="pedestrian_SH1_370_0" type="shared" depart="triggered">
        <route edges="715 719 -782 -866 805 793 775 689 688 -679 692 733#0 733#1 733#2 733#3 878#4 878#0 878#1 878#2 -737#2 -737#0 15#6 15#7 15#0 15#1 15#2 -773 191 -815#2 -815#1 -815#0 1492 895#2 895#3 803#0 885#0 885#1 358#2 294#0 294#1 294#2"/>
    </vehicle>
    <person id="pedestrian_SH1_370" depart="18648.00">
        <ride from="715" to="294#2" busStop="25334" lines="pedestrian_SH1_370_0"/> <!-- Roseraie -->
        <walk edges="294#2 1146#1 1145#3 1211 1146#3 1146#4 1146#5"/>
    </person>
    <person id="pedestrian_PT2_959" depart="18666.00">
        <walk edges="-818#0 295#2 1131#1 1131#0 -819#0 -929#7 1119 -812#0 -1404#0 443#0" busStop="25463"/> <!-- Cimetiere -->
        <ride busStop="25318" lines="100:Menton" intended="bus_100:Menton.0" depart="19754.00"/> <!-- Monte-Carlo (TAM) | Monte-Carlo (Tourisme) -->
        <walk edges="582#3 582#4 582#5 582#6 582#7 1039#0 1039#1 1035#1 1035#0 585#0"/>
    </person>
    <person id="pedestrian_PT1_1889" depart="18690.00">
        <walk edges="440#0 360#2 439#9" busStop="25359"/> <!-- Larvotto -->
        <ride busStop="25335" lines="5:Hopital" intended="bus_5:Hopital.0" depart="18814.00"/> <!-- Place du Casino -->
        <ride busStop="25338" lines="6:Fontvieille" intended="bus_6:Fontvieille.0" depart="19305.00"/> <!-- Monte-Carlo -->