<?xml version="1.0" encoding="UTF-8"?>

<!--
    Monaco SUMO Traffic (MoST) Scenario
    Copyright (C) 2018
    Lara CODECA

    This program is free software: you can redistribute it and/or modify
    it under the terms of the GNU General Public License as published by
    the Free Software Foundation, either version 3 of the License, or
    (at your option) any later version.

    This program is distributed in the hope that it will be useful,
    but WITHOUT ANY WARRANTY; without even the implied warranty of
    MERCHANTABILITY or FITNESS FOR A PARTICULAR PURPOSE.  See the
    GNU General Public License for more details.

    You should have received a copy of the GNU General Public License
    along with this program.  If not, see <http://www.gnu.org/licenses/>.
-->

<routes xmlns:xsi="http://www.w3.org/2001/XMLSchema-instance" xsi:noNamespaceSchemaLocation="http://sumo.dlr.de/xsd/routes_file.xsd">
    <route id="bus_M2:France" edges="1372#1 661#0 -663#2 -666 -661#0 -1363#0 -1372#0 -1390#6 -1390#5 -1390#4 -1390#3 -1390#2 -1390#1 -1390#0 -1391#1 1396 -1398#0 -155 1399" >
        <stop busStop="155482" duration="30.00" until="37.0"/> <!-- La Turbie Marie -->
        <stop busStop="155486" duration="30.00" until="429.0"/> <!-- 155486 -->
    </route>
    <route id="bus_M4:Train" edges="1415#13 1415#16 1415#17 1415#18 1415#19 1415#20 1415#21 847#0 -850 -942#0 -848#2" >
        <stop busStop="155498" duration="30.00" until="61.0"/> <!-- L'Eglise -->
        <stop busStop="155496" duration="30.00" until="135.0"/> <!-- La Source -->
        <stop busStop="155353" duration="30.00" until="206.0"/> <!-- Les Cigognes -->
        <stop busStop="155513" duration="30.00" until="261.0"/> <!-- Bois Joli -->
    </route>
    <route id="bus_M4:HotelVille" edges="848#2 942#0 850 -847#0 -1415#21 -1415#20 -1415#19 -1415#18 -1415#17 -1415#16 -1415#13" >
        <stop busStop="155345" duration="30.00" until="44.0"/> <!-- Bois Joli -->
        <stop busStop="155514" duration="30.00" until="99.0"/> <!-- Les Cigognes -->
        <stop busStop="155495" duration="30.00" until="164.0"/> <!-- Guillaume Apollinaire -->
        <stop busStop="155497" duration="30.00" until="239.0"/> <!-- L'Eglise -->
        <stop busStop="155499" duration="30.00" until="304.0"/> <!-- Hotel de Ville -->
    </route>
    <route id="bus_M1:France" edges="855 156 1416#0 -831 -1397#0 -1398#0 -155 1399" >
        <stop busStop="155490" duration="30.00" until="74.0"/> <!-- Parking Saint-Laurent d'Eze -->
        <stop busStop="155349" duration="30.00" until="228.0"/> <!-- Chapelle de Saint-Laurent -->
        <stop busStop="155486" duration="30.00" until="594.0"/> <!-- 155486 -->
    </route>
    <route id="bus_M1:Eze" edges="-1399 155 1398#0 1398#1 831 -1416#0 -156 -855" >
        <stop busStop="155485" duration="30.00" until="38.0"/> <!-- 155485 -->
        <stop busStop="155480" duration="30.00" until="419.0"/> <!-- Chapelle de Saint-Laurent -->
        <stop busStop="155489" duration="30.00" until="555.0"/> <!-- Parking Saint-Laurent d'Eze -->
    </route>
    <route id="bus_M2:Turbie" edges="-1399 155 1398#0 -1396 1391#1 1391#2 1390#1 1390#2 1390#3 1390#4 1390#5 1390#6 1390#7 836#0" >
        <stop busStop="155485" duration="30.00" until="40.0"/> <!-- 155485 -->
        <stop busStop="155348" duration="30.00" until="384.0"/> <!-- La Turbie Marie -->
    </route>
    <route id="bus_M5:Ramingao" edges="1604 186 -476 -1296#2 -1296#1 -1296#0 -132 -925#1 -925#0" >
        <stop busStop="155458" duration="30.00" until="43.0"/> <!-- Pont de l'Union -->
        <stop busStop="155516" duration="30.00" until="136.0"/> <!-- 155516 -->
        <stop busStop="155394" duration="30.00" until="276.0"/> <!-- Le Cirta -->
        <stop busStop="155392" duration="30.00" until="340.0"/> <!-- Mairie -->
        <stop busStop="155470" duration="30.00" until="473.0"/> <!-- 1er Escalier -->
        <stop busStop="155472" duration="30.00" until="538.0"/> <!-- 2e Escalier -->
        <stop busStop="155477" duration="30.00" until="616.0"/> <!-- Ramingao -->
    </route>
    <route id="bus_M5:PontUnion" edges="925#0 925#1 132 1296#0 1296#1 -1293#2 -1293#1 -1293#0 -1298#1 -1298#0 862#3 862#0 862#1 862#2 1298#0 1298#1 1293#0 1293#1 1293#2 1296#2 -887 -186 475" >
        <stop busStop="155476" duration="30.00" until="64.0"/> <!-- Ramingao -->
        <stop busStop="155473" duration="30.00" until="144.0"/> <!-- 2e Escalier -->
        <stop busStop="155471" duration="30.00" until="224.0"/> <!-- 1er Escalier -->
        <stop busStop="155469" duration="30.00" until="450.0"/> <!-- Massolin -->
        <stop busStop="155396" duration="30.00" until="553.0"/> <!-- Cypris -->
        <stop busStop="155395" duration="30.00" until="622.0"/> <!-- Orchidees -->
        <stop busStop="155393" duration="30.00" until="762.0"/> <!-- Victoria -->
        <stop busStop="155512" duration="30.00" until="848.0"/> <!-- Pont de l'Union -->
    </route>
    <route id="bus_M3:Hospital" edges="836#0 836#1 836#2 836#3 836#5 836#6 836#7 836#8 317#1 317#2 317#3 234#0 234#1 234#2 234#3 234#4 234#5 234#6 234#7 234#8 -938#3 -938#2 -938#1 -938#0 -827#1 -827#0 309#0 309#2 827#0 827#1" >
        <stop busStop="155348" duration="30.00" until="38.0"/> <!-- La Turbie Marie -->
        <stop busStop="155356" duration="30.00" until="116.0"/> <!-- 155356 -->
        <stop busStop="155338" duration="30.00" until="229.0"/> <!-- 155338 -->
        <stop busStop="155337" duration="30.00" until="553.0"/> <!-- 155337 -->
        <stop busStop="155355" duration="30.00" until="661.0"/> <!-- 155355 -->
        <stop busStop="155347" duration="30.00" until="737.0"/> <!-- 155347 -->
        <stop busStop="155373" duration="30.00" until="876.0"/> <!-- Hopital -->
    </route>
    <route id="bus_1:Monaco" edges="253 505#1 505#2 505#3 505#4 362#2 540#0 540#1 540#2 -223 -895#1 -895#0 866#0 866#1 866#2 866#3 866#4 -531#6 -531#5 -531#4 -531#3 -531#2 -542 -535#0 -530#2 -530#1 -530#0 -593#10 -593#9 -579 -600 -585 -577 -879 -587 -593#3 -593#2 -593#1 629#0 629#1 -869#5 643 591 -702#2 -702#0 737#0 737#1 737#2 868#2 868#3 747 890#1 890#2 890#3 890#4 208 216#0 174 331 92 -292 -196 721 195 727 194 688 193 190 602 272 -588 -192 -689 -714#2 -714#1 -714#0 868#1 868#2 868#3 747 890#1 890#2 890#3 890#4 890#5 890#6 890#7 890#8 -1205#2 -1205#1 -13#1 -13#0 729 745#1 -197 -753 748#2 889#3 -744#3 -744#2 -744#1 -744#0 -703 690 -699 -700 701 -687" >
        <stop busStop="155484" duration="30.00" until="42.0"/> <!-- Saint-Roman (Bus 1) -->
        <stop busStop="155451" duration="30.00" until="109.0"/> <!-- Carmes -->
        <stop busStop="155442" duration="30.00" until="231.0"/> <!-- La Rousse -->
        <stop busStop="155446" duration="30.00" until="320.0"/> <!-- Place des Moulins -->
        <stop busStop="155452" duration="30.00" until="388.0"/> <!-- Saint-Charles -->
        <stop busStop="155380" duration="30.00" until="489.0"/> <!-- Monte-Carlo -->
        <stop busStop="155381" duration="30.00" until="553.0"/> <!-- Square Beaumarchais -->
        <stop busStop="155450" duration="30.00" until="725.0"/> <!-- Ostende -->
        <stop busStop="155378" duration="30.00" until="889.0"/> <!-- Place Sainte-Devote (Gare) -->
        <stop busStop="155440" duration="30.00" until="942.0"/> <!-- Princesse Florestine -->
        <stop busStop="155436" duration="30.00" until="1028.0"/> <!-- Place d'Armes (Port) -->
        <stop busStop="155434" duration="30.00" until="1174.0"/> <!-- Monaco Ville (le Rocher) -->
    </route>
    <route id="bus_2:Jardin" edges="-687 -690 703 744#0 744#1 744#2 744#3 889#4 889#0 889#1 889#2 -748#2 -748#0 15#6 15#7 -17 222#4 213 216#3 -208 890#5 890#6 890#7 890#8 -1205#2 -1205#1 -13#1 -13#0 729 745#1 745#2 745#3 745#4 296 294 743#1 743#2 743#3 743#4 743#5 868#0 868#1 -737#2 -737#1 -737#0 702#0 702#2 702#3 702#4 702#5 -629#1 -629#0 593#1 593#2 593#3 641#1 641#2 641#3 -628#5 -628#4 -628#3 -628#2 -628#1 -628#0 122 873#0 873#1 -741#11 -741#10 -741#9 -741#8 -741#7 -741#6 -741#5 -741#4 -741#3 -741#2 824 741#1" >
        <stop busStop="155434" duration="30.00" until="39.0"/> <!-- Monaco Ville (le Rocher) -->
        <stop busStop="155436" duration="30.00" until="238.0"/> <!-- Place d'Armes (Port) -->
        <stop busStop="155362" duration="30.00" until="304.0"/> <!-- Princesse Stephanie -->
        <stop busStop="155410" duration="30.00" until="357.0"/> <!-- Stade Nautique -->
        <stop busStop="155411" duration="30.00" until="412.0"/> <!-- Princesse Antoinette -->
        <stop busStop="155412" duration="30.00" until="482.0"/> <!-- Kennedy | Ostende -->
        <stop busStop="155409" duration="30.00" until="545.0"/> <!-- Terrasses du Casino -->
        <stop busStop="155360" duration="30.00" until="629.0"/> <!-- Monte-Carlo (TAM) | Monte-Carlo (Tourisme) -->
        <stop busStop="155408" duration="30.00" until="693.0"/> <!-- Cremaillere -->
        <stop busStop="155415" duration="30.00" until="774.0"/> <!-- Roqueville -->
        <stop busStop="155365" duration="30.00" until="838.0"/> <!-- Pont Sainte-Devote -->
        <stop busStop="155437" duration="30.00" until="900.0"/> <!-- Belgique -->
        <stop busStop="155416" duration="30.00" until="955.0"/> <!-- Moneghetti -->
        <stop busStop="155453" duration="30.00" until="1022.0"/> <!-- Rotondes -->
        <stop busStop="155367" duration="30.00" until="1072.0"/> <!-- Villa Paloma -->
        <stop busStop="155455" duration="30.00" until="1141.0"/> <!-- Jardin Exotique -->
    </route>
    <route id="bus_1:SaintRoman" edges="-687 -690 703 744#0 744#1 744#2 744#3 889#4 889#0 889#1 889#2 -748#2 -748#0 15#6 15#7 -17 222#4 213 216#3 -208 890#5 890#6 890#7 890#8 -1205#2 -1205#1 -13#1 -13#0 729 745#1 745#2 745#3 745#4 296 294 743#1 743#2 743#3 743#4 743#5 868#0 868#1 -737#2 -737#1 -737#0 702#0 -287 591 -702#2 -702#0 737#0 737#1 737#2 868#2 868#3 868#4 868#0 714#0 714#1 714#2 689 192 588 576 580#2 580#3 580#4 596#3 1492 604#0 604#1 604#2 604#3 604#4 604#5 -583#2 -583#1 -583#0 593#1 593#2 593#3 587 879 577 585 600 579 -593#8 -593#7 -593#6 -593#5 -593#4 587 879 577 585 600 579 593#9 593#10 593#11 530#1 530#2 530#3 116 361 362#1 -505#4 -505#3 -505#2 253" >
        <stop busStop="155434" duration="30.00" until="40.0"/> <!-- Monaco Ville (le Rocher) -->
        <stop busStop="155436" duration="30.00" until="236.0"/> <!-- Place d'Armes (Port) -->
        <stop busStop="155362" duration="30.00" until="302.0"/> <!-- Princesse Stephanie -->
        <stop busStop="155410" duration="30.00" until="354.0"/> <!-- Stade Nautique -->
        <stop busStop="155411" duration="30.00" until="410.0"/> <!-- Princesse Antoinette -->
        <stop busStop="155412" duration="30.00" until="480.0"/> <!-- Kennedy | Ostende -->
        <stop busStop="155413" duration="30.00" until="655.0"/> <!-- Auditorium Rainier III -->
        <stop busStop="155361" duration="30.00" until="734.0"/> <!-- Portier -->
        <stop busStop="155369" duration="30.00" until="830.0"/> <!-- Spelugues -->
        <stop busStop="155368" duration="30.00" until="886.0"/> <!-- Citronniers -->
        <stop busStop="155377" duration="30.00" until="937.0"/> <!-- Place du Casino -->
        <stop busStop="155360" duration="30.00" until="1048.0"/> <!-- Monte-Carlo (TAM) | Monte-Carlo (Tourisme) -->
        <stop busStop="155379" duration="30.00" until="1126.0"/> <!-- Saint-Charles -->
        <stop busStop="155447" duration="30.00" until="1221.0"/> <!-- Place des Moulins -->
        <stop busStop="155445" duration="30.00" until="1284.0"/> <!-- La Rousse -->
        <stop busStop="155443" duration="30.00" until="1348.0"/> <!-- Carmes -->
        <stop busStop="155484" duration="30.00" until="1413.0"/> <!-- Saint-Roman (Bus 1) -->
    </route>
    <route id="bus_5:Larvotto" edges="827#1 827#2 204 -798#5 -798#4 -798#3 -798#2 -798#1 -798#0 1495#3 875#0 875#1 875#2 741#11 686 123 712#0 746 874#2 127 628#0 628#1 628#2 628#3 628#4 628#5 630 631 593#1 593#2 593#3 -594#2 -594#1 -594#0 -604#4 -604#3 -604#2 -604#1 -604#0 597 580#1 580#2 450#0 450#2 451#6 450#2 450#4 450#5 450#6 450#7 450#8 450#9" >
        <stop busStop="155373" duration="30.00" until="53.0"/> <!-- Hopital -->
        <stop busStop="155423" duration="30.00" until="114.0"/> <!-- Observatoire -->
        <stop busStop="155518" duration="30.00" until="174.0"/> <!-- Parc Princesse Antoinette -->
        <stop busStop="155424" duration="30.00" until="232.0"/> <!-- Bosio -->
        <stop busStop="155441" duration="30.00" until="293.0"/> <!-- Belgique -->
        <stop busStop="155397" duration="30.00" until="364.0"/> <!-- Pont Sainte-Devote -->
        <stop busStop="155448" duration="30.00" until="425.0"/> <!-- Roqueville -->
        <stop busStop="155360" duration="30.00" until="550.0"/> <!-- Monte-Carlo (TAM) | Monte-Carlo (Tourisme) -->
        <stop busStop="155444" duration="30.00" until="620.0"/> <!-- Place du Casino -->
        <stop busStop="155405" duration="30.00" until="685.0"/> <!-- Spelugues -->
        <stop busStop="155361" duration="30.00" until="743.0"/> <!-- Portier -->
        <stop busStop="155426" duration="30.00" until="822.0"/> <!-- Grimaldi Forum/Villa Sauber -->
        <stop busStop="155449" duration="30.00" until="919.0"/> <!-- Plages -->
        <stop busStop="155427" duration="30.00" until="975.0"/> <!-- Sea Club -->
        <stop busStop="155401" duration="30.00" until="1028.0"/> <!-- Larvotto -->
    </route>
    <route id="bus_2:Monaco" edges="741#1 741#2 741#3 741#4 741#5 741#6 741#7 741#8 741#9 741#10 -875#2 -734 -741#9 -741#8 -741#7 -741#6 -741#5 -741#4 -741#3 -741#2 824 741#1 741#2 741#3 741#4 741#5 741#6 741#7 741#8 741#9 741#10 741#11 686 123 712#0 746 874#2 127 628#0 628#1 628#2 628#3 628#4 628#5 630 631 629#0 629#1 -869#5 643 591 -702#2 -702#0 737#0 737#1 737#2 868#2 868#3 747 890#1 890#2 890#3 890#4 208 216#0 174 331 92 -292 -196 721 195 727 194 688 193 190 602 272 -588 -192 -689 -714#2 -714#1 -714#0 868#1 868#2 868#3 747 890#1 890#2 890#3 890#4 890#5 890#6 890#7 890#8 890#11 889#1 889#2 889#3 -744#3 -744#2 -744#1 -744#0 -703 690 -699 -700 701 -687" >
        <stop busStop="155455" duration="30.00" until="39.0"/> <!-- Jardin Exotique -->
        <stop busStop="155366" duration="30.00" until="228.0"/> <!-- Villa Paloma -->
        <stop busStop="155456" duration="30.00" until="375.0"/> <!-- Rotondes -->
        <stop busStop="155387" duration="30.00" until="439.0"/> <!-- Moneghetti -->
        <stop busStop="155430" duration="30.00" until="497.0"/> <!-- Belgique -->
        <stop busStop="155397" duration="30.00" until="575.0"/> <!-- Pont Sainte-Devote -->
        <stop busStop="155448" duration="30.00" until="638.0"/> <!-- Roqueville -->
        <stop busStop="155380" duration="30.00" until="708.0"/> <!-- Monte-Carlo -->
        <stop busStop="155381" duration="30.00" until="770.0"/> <!-- Square Beaumarchais -->
        <stop busStop="155450" duration="30.00" until="942.0"/> <!-- Ostende -->
        <stop busStop="155378" duration="30.00" until="1108.0"/> <!-- Place Sainte-Devote (Gare) -->
        <stop busStop="155440" duration="30.00" until="1161.0"/> <!-- Princesse Florestine -->
        <stop busStop="155402" duration="30.00" until="1241.0"/> <!-- Place d'Armes (vers Monaco Ville) -->
        <stop busStop="155434" duration="30.00" until="1351.0"/> <!-- Monaco Ville (le Rocher) -->
    </route>
    <route id="bus_4:Fontvieille" edges="-253 -505#1 -505#0 499 111 250#1 114 508#1 254 505#0 505#1 505#2 505#3 505#4 362#2 540#0 540#1 540#2 -223 -895#1 -895#0 866#0 866#1 866#2 866#3 866#4 -531#6 -531#5 -531#4 -531#3 -531#2 -542 -535#0 -530#2 -530#1 -530#0 -593#10 -593#9 -579 -600 -585 -577 -879 -587 641#1 641#2 641#3 -628#5 -628#4 -628#3 -628#2 -628#1 -628#0 122 873#0 720 712#2 899#0 899#1 899#2 899#3 899#4 899#5 -722#1 751#0 751#1 15#7 -17 222#4 213 216#3 -208 890#5 890#6 890#7 890#8 -1205#2 -1205#1 -13#1 -13#0 729 745#1 745#2 745#3 745#4 296 716#0 716#1 716#2 -378 -716#3 -716#2 -716#1 -716#0 382 199 1588 1587" >
        <stop busStop="155403" duration="30.00" until="38.0"/> <!-- Saint-Roman (Bus 4) -->
        <stop busStop="155399" duration="30.00" until="99.0"/> <!-- Varavilla -->
        <stop busStop="155481" duration="30.00" until="160.0"/> <!-- Saint-Roman -->
        <stop busStop="155451" duration="30.00" until="231.0"/> <!-- Carmes -->
        <stop busStop="155442" duration="30.00" until="354.0"/> <!-- La Rousse -->
        <stop busStop="155446" duration="30.00" until="440.0"/> <!-- Place des Moulins -->
        <stop busStop="155452" duration="30.00" until="506.0"/> <!-- Saint-Charles -->
        <stop busStop="155408" duration="30.00" until="597.0"/> <!-- Cremaillere -->
        <stop busStop="155415" duration="30.00" until="676.0"/> <!-- Roqueville -->
        <stop busStop="155365" duration="30.00" until="737.0"/> <!-- Pont Sainte-Devote -->
        <stop busStop="155417" duration="30.00" until="801.0"/> <!-- Louis Aureglia -->
        <stop busStop="155363" duration="30.00" until="865.0"/> <!-- Castelleretto -->
        <stop busStop="155364" duration="30.00" until="923.0"/> <!-- Honore II -->
        <stop busStop="155436" duration="30.00" until="1040.0"/> <!-- Place d'Armes (Port) -->
        <stop busStop="155439" duration="30.00" until="1100.0"/> <!-- Princesse Stephanie -->
        <stop busStop="155406" duration="30.00" until="1261.0"/> <!-- Fontvieille - Centre Commercial -->
    </route>
    <route id="bus_4:SaintRoman" edges="1587 802#4 802#5 802#0 359 369#2 305#0 305#1 305#2 305#3 785 -305#4 -305#3 -305#2 571 -201 -801#3 -801#2 -801#1 -801#0 914 913#3 913#4 904 219 -823#2 -823#1 -1415#0 326 173 327#0 327#1 212 222#3 17 15#0 15#1 15#2 15#3 15#4 15#5 748#0 748#2 889#3 889#4 889#0 889#1 889#2 -748#2 -748#0 15#6 15#7 -17 222#4 213 216#3 -208 890#5 890#6 890#7 890#8 -752#1 -752#0 -1491#3 -1491#2 -1491#1 -1491#0 899#2 899#3 899#4 899#5 918#0 918#1 759#0 759#1 759#2 759#3 750#0 750#1 750#2 750#3 719#0 719#1 -759#0 -918#1 -918#0 -899#5 -899#4 -899#3 -899#2 -899#1 -899#0 874#0 874#1 874#2 127 628#0 628#1 628#2 628#3 628#4 628#5 630 631 593#1 593#2 593#3 587 879 577 585 600 579 -593#8 -593#7 -593#6 -593#5 -593#4 587 879 577 585 600 579 593#9 593#10 593#11 530#1 530#2 530#3 116 361 362#1 -505#4 -505#3 -505#2 -505#1 -253" >
        <stop busStop="155406" duration="30.00" until="45.0"/> <!-- Fontvieille - Centre Commercial -->
        <stop busStop="155420" duration="30.00" until="112.0"/> <!-- Papalins -->
        <stop busStop="155376" duration="30.00" until="171.0"/> <!-- Roseraie -->
        <stop busStop="155419" duration="30.00" until="266.0"/> <!-- Heliport -->
        <stop busStop="155520" duration="30.00" until="329.0"/> <!-- Stade Louis II -->
        <stop busStop="155506" duration="30.00" until="411.0"/> <!-- Cimetiere -->
        <stop busStop="155433" duration="30.00" until="513.0"/> <!-- Place d'Armes (Charles III) -->
        <stop busStop="155418" duration="30.00" until="787.0"/> <!-- Castelleretto -->
        <stop busStop="155354" duration="30.00" until="844.0"/> <!-- Louis Aureglia -->
        <stop busStop="155397" duration="30.00" until="911.0"/> <!-- Pont Sainte-Devote -->
        <stop busStop="155448" duration="30.00" until="973.0"/> <!-- Roqueville -->
        <stop busStop="155360" duration="30.00" until="1040.0"/> <!-- Monte-Carlo (TAM) | Monte-Carlo (Tourisme) -->
        <stop busStop="155379" duration="30.00" until="1117.0"/> <!-- Saint-Charles -->
        <stop busStop="155447" duration="30.00" until="1216.0"/> <!-- Place des Moulins -->
        <stop busStop="155445" duration="30.00" until="1278.0"/> <!-- La Rousse -->
        <stop busStop="155443" duration="30.00" until="1342.0"/> <!-- Carmes -->
        <stop busStop="155403" duration="30.00" until="1408.0"/> <!-- Saint-Roman (Bus 4) -->
    </route>
    <route id="bus_6:Larvotto" edges="1587 802#4 802#5 802#0 359 369#2 305#0 305#1 305#2 305#3 785 -305#4 -305#3 -305#2 571 -201 -801#3 -801#2 -801#1 -801#0 914 913#3 -828#1 -828#0 906#3 906#4 811#0 811#1 811#2 802#5 802#0 802#1 802#2 1586 200#0 200#0-AddedOffRampEdge 200#1 897 743#2 743#3 743#4 743#5 868#0 868#1 -737#2 -737#1 -737#0 702#0 702#2 702#3 702#4 702#5 -629#1 -629#0 593#1 593#2 593#3 -594#2 -594#1 -594#0 -604#4 -604#3 -604#2 -604#1 -604#0 597 580#1 580#2 450#0 450#2 451#6 450#2 450#4 450#5 450#6 450#7 450#8 450#9" >
        <stop busStop="155406" duration="30.00" until="45.0"/> <!-- Fontvieille - Centre Commercial -->
        <stop busStop="155420" duration="30.00" until="112.0"/> <!-- Papalins -->
        <stop busStop="155376" duration="30.00" until="172.0"/> <!-- Roseraie -->
        <stop busStop="155419" duration="30.00" until="267.0"/> <!-- Heliport -->
        <stop busStop="155520" duration="30.00" until="330.0"/> <!-- Stade Louis II -->
        <stop busStop="155526" duration="30.00" until="406.0"/> <!-- Albert II -->
        <stop busStop="155421" duration="30.00" until="457.0"/> <!-- Port de Fontvieille -->
        <stop busStop="155410" duration="30.00" until="544.0"/> <!-- Stade Nautique -->
        <stop busStop="155411" duration="30.00" until="599.0"/> <!-- Princesse Antoinette -->
        <stop busStop="155412" duration="30.00" until="667.0"/> <!-- Kennedy | Ostende -->
        <stop busStop="155409" duration="30.00" until="730.0"/> <!-- Terrasses du Casino -->
        <stop busStop="155360" duration="30.00" until="829.0"/> <!-- Monte-Carlo (TAM) | Monte-Carlo (Tourisme) -->
        <stop busStop="155444" duration="30.00" until="896.0"/> <!-- Place du Casino -->
        <stop busStop="155405" duration="30.00" until="963.0"/> <!-- Spelugues -->
        <stop busStop="155361" duration="30.00" until="1020.0"/> <!-- Portier -->
        <stop busStop="155426" duration="30.00" until="1098.0"/> <!-- Grimaldi Forum/Villa Sauber -->
        <stop busStop="155449" duration="30.00" until="1200.0"/> <!-- Plages -->
        <stop busStop="155427" duration="30.00" until="1256.0"/> <!-- Sea Club -->
        <stop busStop="155401" duration="30.00" until="1310.0"/> <!-- Larvotto -->
    </route>
    <route id="bus_6:Fontvieille" edges="450#9 371#3 371#4 371#5 371#0 371#1 451#0 451#1 451#2 451#3 451#4 451#6 451#8 580#4 596#3 1492 604#0 604#1 604#2 604#3 604#4 604#5 575#0 599#1 878#0 878#1 615#1 615#2 629#1 -869#5 643 591 -702#2 -702#0 737#0 737#1 737#2 868#2 868#3 747 890#1 890#2 890#3 890#4 208 216#0 174 331 92 -292 -196 721 195 727 194 688 193 190 602 272 -588 -192 -689 -714#2 -714#1 -714#0 868#1 868#2 868#3 747 890#1 890#2 890#3 890#4 890#5 890#6 890#7 890#8 -1205#2 -1205#1 -13#1 -13#0 729 745#1 745#2 745#3 745#4 296 716#0 716#1 716#2 -378 -716#3 -716#2 -716#1 -716#0 382 199 1588 1587" >
        <stop busStop="155401" duration="30.00" until="46.0"/> <!-- Larvotto -->
        <stop busStop="155527" duration="30.00" until="106.0"/> <!-- Sea Club -->
        <stop busStop="155398" duration="30.00" until="166.0"/> <!-- Plages -->
        <stop busStop="155426" duration="30.00" until="225.0"/> <!-- Grimaldi Forum/Villa Sauber -->
        <stop busStop="155400" duration="30.00" until="286.0"/> <!-- Portier -->
        <stop busStop="155369" duration="30.00" until="362.0"/> <!-- Spelugues -->
        <stop busStop="155368" duration="30.00" until="417.0"/> <!-- Citronniers -->
        <stop busStop="155377" duration="30.00" until="468.0"/> <!-- Place du Casino -->
        <stop busStop="155380" duration="30.00" until="538.0"/> <!-- Monte-Carlo -->
        <stop busStop="155381" duration="30.00" until="600.0"/> <!-- Square Beaumarchais -->
        <stop busStop="155450" duration="30.00" until="774.0"/> <!-- Ostende -->
        <stop busStop="155378" duration="30.00" until="940.0"/> <!-- Place Sainte-Devote (Gare) -->
        <stop busStop="155440" duration="30.00" until="992.0"/> <!-- Princesse Florestine -->
        <stop busStop="155436" duration="30.00" until="1077.0"/> <!-- Place d'Armes (Port) -->
        <stop busStop="155439" duration="30.00" until="1137.0"/> <!-- Princesse Stephanie -->
        <stop busStop="155406" duration="30.00" until="1298.0"/> <!-- Fontvieille - Centre Commercial -->
    </route>
    <route id="bus_5:Hopital" edges="450#9 371#3 371#4 371#5 371#0 371#1 451#0 451#1 451#2 451#3 451#4 451#6 451#8 580#4 596#3 1492 604#0 604#1 604#2 604#3 604#4 604#5 -583#2 -583#1 -583#0 593#1 593#2 593#3 641#1 641#2 641#3 -628#5 -628#4 -628#3 -628#2 -628#1 -628#0 122 873#0 873#1 -741#11 -875#2 -875#1 -875#0 1495#1 1495#2 798#0 798#1 798#2 798#3 798#4 798#5 -204 -827#2 938#0 938#1 938#2 938#3 234#9 234#10 306#1 306#2 829#0 829#1 224 310 326 173 327#0 -867#2 -867#1 -867#0 827#0 827#1" >
        <stop busStop="155401" duration="30.00" until="47.0"/> <!-- Larvotto -->
        <stop busStop="155527" duration="30.00" until="109.0"/> <!-- Sea Club -->
        <stop busStop="155398" duration="30.00" until="169.0"/> <!-- Plages -->
        <stop busStop="155426" duration="30.00" until="228.0"/> <!-- Grimaldi Forum/Villa Sauber -->
        <stop busStop="155400" duration="30.00" until="289.0"/> <!-- Portier -->
        <stop busStop="155369" duration="30.00" until="353.0"/> <!-- Spelugues -->
        <stop busStop="155368" duration="30.00" until="407.0"/> <!-- Citronniers -->
        <stop busStop="155377" duration="30.00" until="459.0"/> <!-- Place du Casino -->
        <stop busStop="155360" duration="30.00" until="521.0"/> <!-- Monte-Carlo (TAM) | Monte-Carlo (Tourisme) -->
        <stop busStop="155408" duration="30.00" until="606.0"/> <!-- Cremaillere -->
        <stop busStop="155415" duration="30.00" until="691.0"/> <!-- Roqueville -->
        <stop busStop="155365" duration="30.00" until="755.0"/> <!-- Pont Sainte-Devote -->
        <stop busStop="155521" duration="30.00" until="822.0"/> <!-- Belgique -->
        <stop busStop="155425" duration="30.00" until="876.0"/> <!-- Bosio -->
        <stop busStop="155517" duration="30.00" until="941.0"/> <!-- Parc Princesse Antoinette -->
        <stop busStop="155404" duration="30.00" until="1023.0"/> <!-- Hopital -->
        <stop busStop="155374" duration="30.00" until="1356.0"/> <!-- Athanee -->
        <stop busStop="155373" duration="30.00" until="1421.0"/> <!-- Hopital -->
    </route>
    <route id="bus_M3:Turbie" edges="1372#1 661#0 -663#2 -666 -661#0 -1363#0 -1372#0 -1390#6 -1390#5 1395#0 1395#1 1395#2 1395#3 1395#4 1395#5 1395#6 -939#5 -939#4 -939#3 -939#2 -939#0 -859#0 -836#7 -836#6 -836#5 -836#3 -836#2 -836#1 672 456 -1421#0 836#2 836#3 836#5 836#6 836#7 836#8 1516#0 -1525 -1527#1 -1527#0 -1528 -1516#0 -317#0 859#0 939#0 939#2 939#3 939#4 939#5 939#6 314 1584#1 894 301 1589 234#0 234#1 234#2 -1418#11 -1407#2 -1407#1 -1407#0 -234#3 -234#2 -234#1 312 234#2 234#3 234#4 234#5 234#6 234#7 234#8 234#9 234#10 306#1 306#2 306#3 306#0 -234#10 -234#9 -234#8 -234#7 -234#6 -234#5 -234#4 -234#3 -1418#11 -1407#2 -1407#1 -1407#0 234#4 234#5 234#6 234#7 234#8 234#9 234#10 306#1 306#2 306#3 306#0 -234#10 -234#9 -234#8 -234#7 -234#6 -234#5 -234#4 -234#3 -1418#11 -1407#2 -1407#1 -1407#0 234#4 234#5 234#6 234#7 234#8 -938#3 -938#2 -938#1 -938#0 -827#1 -827#0 309#0 309#2 827#0 827#1 938#0" >
        <stop busStop="155482" duration="30.00" until="37.0"/> <!-- La Turbie Marie -->
        <stop busStop="155358" duration="30.00" until="468.0"/> <!-- 155358 -->
        <stop busStop="155342" duration="30.00" until="965.0"/> <!-- 155342 -->
        <stop busStop="155357" duration="30.00" until="1464.0"/> <!-- 155357 -->
        <stop busStop="155351" duration="30.00" until="1673.0"/> <!-- 155351 -->
        <stop busStop="155340" duration="30.00" until="1878.0"/> <!-- 155340 -->
        <stop busStop="155404" duration="30.00" until="2187.0"/> <!-- Hopital -->
    </route>
    <route id="bus_3:Fontvieille" edges="763#6 741#3 741#4 741#5 741#6 741#7 741#8 741#9 741#10 -875#2 -734 -741#9 -741#8 -741#7 -741#6 -741#5 -741#4 -741#3 -741#2 824 741#1 741#2 741#3 741#4 741#5 741#6 741#7 741#8 741#9 741#10 -875#2 -875#1 -875#0 1495#1 1495#2 798#0 798#1 798#2 798#3 798#4 798#5 -204 -827#2 938#0 938#1 938#2 938#3 234#9 234#10 306#1 306#2 306#3 306#0 -234#10 -234#9 -938#3 -938#2 -938#1 -938#0 -827#1 -827#0 867#0 867#1 867#2 327#1 212 222#3 17 15#0 15#1 15#2 15#3 15#4 15#5 748#0 748#2 889#3 889#4 889#0 889#1 889#2 -748#2 -748#0 15#6 15#7 -17 222#4 213 216#3 -208 890#5 890#6 890#7 890#8 -1205#2 -1205#1 -13#1 -13#0 729 745#1 745#2 745#3 745#4 296 716#0 716#1 716#2 -378 -716#3 -716#2 -716#1 -716#0 382 199 1588 1587" >
        <stop busStop="155429" duration="30.00" until="43.0"/> <!-- Hector Otto -->
        <stop busStop="155366" duration="30.00" until="231.0"/> <!-- Villa Paloma -->
        <stop busStop="155454" duration="30.00" until="367.0"/> <!-- Rotondes -->
        <stop busStop="155387" duration="30.00" until="416.0"/> <!-- Moneghetti -->
        <stop busStop="155430" duration="30.00" until="475.0"/> <!-- Belgique -->
        <stop busStop="155521" duration="30.00" until="521.0"/> <!-- Belgique -->
        <stop busStop="155425" duration="30.00" until="574.0"/> <!-- Bosio -->
        <stop busStop="155517" duration="30.00" until="639.0"/> <!-- Parc Princesse Antoinette -->
        <stop busStop="155404" duration="30.00" until="722.0"/> <!-- Hopital -->
        <stop busStop="155435" duration="30.00" until="914.0"/> <!-- Athanee -->
        <stop busStop="155372" duration="30.00" until="994.0"/> <!-- Cimetiere -->
        <stop busStop="155433" duration="30.00" until="1088.0"/> <!-- Place d'Armes (Charles III) -->
        <stop busStop="155436" duration="30.00" until="1217.0"/> <!-- Place d'Armes (Port) -->
        <stop busStop="155439" duration="30.00" until="1277.0"/> <!-- Princesse Stephanie -->
        <stop busStop="155406" duration="30.00" until="1441.0"/> <!-- Fontvieille - Centre Commercial -->
    </route>