<?xml version="1.0" encoding="UTF-8"?>

<!--
    Monaco SUMO Traffic (MoST) Scenario
    Copyright (C) 2019
    Lara CODECA

    This program is free software: you can redistribute it and/or modify
    it under the terms of the GNU General Public License as published by
    the Free Software Foundation, either version 3 of the License, or
    (at your option) any later version.

    This program is distributed in the hope that it will be useful,
    but WITHOUT ANY WARRANTY; without even the implied warranty of
    MERCHANTABILITY or FITNESS FOR A PARTICULAR PURPOSE.  See the
    GNU General Public License for more details.

    You should have received a copy of the GNU General Public License
    along with this program.  If not, see <http://www.gnu.org/licenses/>.
-->

<routes xmlns:xsi="http://www.w3.org/2001/XMLSchema-instance" xsi:noNamespaceSchemaLocation="http://sumo.dlr.de/xsd/routes_file.xsd"> 
    <vehicle id="special_1-1_121" type="special" depart="18010" departLane="best" arrivalPos="random">
        <route edges="152291 152761 152290 152286 152669#0 152669#1 152363#2 -152607 -152170#1 -152170#0 -152224 152587#0 152587#1 152587#2 152587#3 152220 152579#0 152579#1 152348 152578#1 -152218 153378#0 153378#1 153378#2 153376 152221 -153480#7 -153480#6 153546 -153546 153480#6 153480#7"/>
    </vehicle>
    <vehicle id="special_1-1_237" type="special" depart="18040" departLane="best" arrivalPos="random">
        <route edges="152875#1 152875#2 -152398#4 -152398#3 -152398#2 -152398#1 -152398#0 152458#3 -152451 152874#1 152874#2 153638 152297#0 152297#0-AddedOffRampEdge 152297#1 152967 152816#2 152816#3 152816#4 152816#5 152787#0 152787#1 152787#2 152762 152289 152662 152654#2 152534#0 152534#2 152534#4 152534#5 152534#6 152534#7 152347#0"/>
    </vehicle>
    <vehicle id="special_1-3_230" type="special" depart="18043" departLane="best" arrivalPos="random">
        <route edges="-152814#10 -152814#9 -152814#8 -152814#7 -152814#6 -152814#5 -152814#4 -152814#3 -152814#2 -152814#1 -152814#0 152989 -152901#1 -152901#0 152399#3 152399#0 -152168#1 -152168#0 -152166 -152330#5 -152330#4 -152330#3 -152330#2 -152330#1 -152330#0 153637 153634#1 153636#1 153002#0 153002#1 -153458#1 -153458#0 -153457"/>
    </vehicle>
    <vehicle id="special_1-1_30" type="special" depart="18127" departLane="best" arrivalPos="random">
        <route edges="152649#3 152649#4 152649#5 153406#0 153406#1 153406#2 152679 152678 152542 152647#0 152648#0 152648#1 152648#2 152648#3 152648#4 152648#5 152648#6 152353#2 152353#3 -152513#1 -152606#9 -152606#8 -152606#7 -152937#4"/>
    </vehicle>
    <vehicle id="special_1-2_279" type="special" depart="18145" departLane="best" arrivalPos="random">
        <route edges="152535#6 152654#4 152670#3 152677#0 152677#1 152677#2 152677#3 152677#4 152677#5 152650#0 152672#1 152672#2 -152381 -152716 -152767#3 -152767#2 -152780 -152706#3 -152708#1 -152708#0 152971#1 152971#2 152971#3 152971#4 153439#0 153439#1 153439#2"/>
    </vehicle>
    <vehicle id="special_1-1_9" type="special" depart="18183" departLane="best" arrivalPos="random">
        <route edges="152781 152939#4 152939#5 -152702#1 -152702#0 152667#1 152667#2 152667#3 152667#4 152667#5 152667#6 152667#7 152667#8 152667#9 152667#10 152667#11 152605#1 152605#2 152169 152223 152453 152454#1 -152582#4"/>
    </vehicle>
    <vehicle id="special_1-1_99" type="special" depart="18193" departLane="best" arrivalPos="random">
        <route edges="152606#0 152606#1 -152617 -152610 152169 152223 152453 152454#1 -152582#4 -152582#3 -152582#2 -152582#1 -152349 152582#2 152582#3"/>
    </vehicle>
    <vehicle id="special_1-1_287" type="special" depart="18198" departLane="best" arrivalPos="random">
        <route edges="-152836#4 -152836#3 -152836#2 -152391 152836#3 152836#4 152836#5 152836#6 152814#3 152814#4 152814#5 152814#6 152814#7 152814#8 152814#9 152814#10 152814#11 152759 152230 152785#0 152819 152944#2 152234 152701#0 152701#1 152701#2 152701#3 152701#4 152701#5 152703 152704 152657#0 152657#1 152657#2 -152677#5 -152677#4 -152677#3 -152677#2 -152677#1 -152677#0 152654#0 152654#1 152654#2 152534#0 152534#2 152534#4 152534#5 152534#6 152534#7 -152165#1 -152457#2 152457#0"/>
    </vehicle>
    <vehicle id="special_3-1_206" type="special" depart="18202" departLane="best" arrivalPos="random">
        <route edges="153459#1 153458#1 153005#0 153005#1 152235 153338 153641 152330#0 152330#1 152330#2 152330#3 152330#4 152330#5 152166 152168#0 152168#1 152399#1 152399#2 152901#0 152901#1 152988 152814#0 152814#1 152814#2 152814#3 152814#4 152814#5 152814#6 152814#7 152814#8 152814#9 152814#10 152814#11 152759 152230 152785#0 152819 152944#2 152234 152701#0 152701#1 152701#2 152701#3 152701#4 152701#5 152703 152704 152657#0 152657#1 152657#2 -152677#5 -152677#4 -152677#3 152660#0"/>
    </vehicle>
    <vehicle id="special_1-1_213" type="special" depart="18213" departLane="best" arrivalPos="random">
        <route edges="153273#2 152960#10 152959#2 152959#3 -152821#2 -152821#1 -152821#0 152137#6 152137#7 -152139 152318#4 152309 152312#3 152312#0 152271 152423 152206 -152385 -152293 152794 152292 152800 152291 152761 152290 152287 152654#1 152654#2 152534#0 152535#6"/>
    </vehicle>
    <vehicle id="special_3-1_51" type="special" depart="18213" departLane="best" arrivalPos="random">
        <route edges="153452#0 153452#1 153452#2 153451#1 153451#2 153451#3 153451#4 153451#5 153451#6 153451#7 153433#1 152734#0 -152736#2 -152736#1 -152736#0 153391#0 153391#1 153392#1 153387#1 153387#2 -152628#1 -152628#0 -153384#1 -153384#0 -152177 -152176#2 -152176#1 -152176#0 153383#1 153383#2 153383#3 153383#4 153383#5 -152246 153369#0 153369#1 152245 152565 152307 -153372#4 -153372#3 -153372#2 153480#0 153480#1 153480#2 153480#3 153480#4 153480#5 153480#6 153480#7 152216 -153378#2 -153378#1 -153378#0 152218 -152578#1 152172 152173 153375 152165#1 152535#0 152535#1 152535#2 152535#4"/>
    </vehicle>
    <vehicle id="special_1-1_221" type="special" depart="18235" departLane="best" arrivalPos="random">
        <route edges="152234 152701#0 152701#1 152701#2 152701#3 152701#4 152701#5 152703 152704 152657#0 152657#1 152657#2 -152677#5 -152677#4 152676#0 152676#1 152676#2 152472#0"/>
    </vehicle>
    <vehicle id="special_2-1_3" type="special" depart="18243" departLane="best" arrivalPos="random">
        <route edges="-152481 -153412#0 -152254 153423#0 153423#1 153423#2 153410#0 153410#1 153410#2 153410#3 153410#4 153410#5 153410#6 153410#7 153410#8 153410#9 -153331#2 -153331#1 -153331#0 -153415#1 -153415#0 153413#14 153413#15 153413#16 152997 152999 152706#0 152706#1 152706#2 152706#3 152780 152767#2 152767#3 152716 152381 -152775#0"/>
    </vehicle>
    <vehicle id="special_1-1_184" type="special" depart="18264" departLane="best" arrivalPos="random">
        <route edges="-152206 152461 152311 152312#2 -152309 152318#1 152317 -152898#2 -152898#1 153559#3 -152878 152883#1 152883#2 152874#5 152874#0 152451"/>
    </vehicle>
    <vehicle id="special_1-2_59" type="special" depart="18280" departLane="best" arrivalPos="random">
        <route edges="-152832#1 -152832#0 -152987#1 -152987#0 -152795#1 152824#0 152824#1 152137#7 152137#0 152138 152968 -152270 -152418 -152958 153476#1 153476#2 153476#3 153476#5 153476#6 153476#7 153476#8 153476#9 153476#10 153476#11 -153462#5 -153462#4 -153462#3 -153462#2 -153462#1"/>
    </vehicle>
    <vehicle id="special_3-1_291" type="special" depart="18290" departLane="best" arrivalPos="random">
        <route edges="152903 153477#1 152302 153342 152303 -153476#26 -153476#25 -153476#24 -153476#23 -153476#22 -153476#20 -153476#19 -153476#18 -153476#17 -153476#16 -153476#15 -153476#14 -153476#13 -153476#12 -153476#11 -153476#10 153008#0 153008#1 153008#2 153008#3 153008#4 153008#5 153008#6 153008#7 152402#2 152402#3 152899#0 152899#1 152899#2 -152870#4 -152870#3 -152870#2 -152870#1 -152870#0 153552#3 153552#0 152945#0 152945#1 152945#2 152814#11 152759 152230 152785#0 152819 152944#2 152234 152701#0 152701#1 152701#2 -152706#3 -152708#1 -152708#0"/>
    </vehicle>
    <vehicle id="special_1-1_123" type="special" depart="18324" departLane="best" arrivalPos="random">
        <route edges="-152167 152944#0 152944#1 152944#2 152234 152701#0 152701#1 152701#2 152701#3 152701#4 152701#5 152703 152704 152667#1 152667#2 152667#3 -152668#2 -152664#6"/>
    </vehicle>
    <vehicle id="special_1-2_25" type="special" depart="18380" departLane="best" arrivalPos="random">
        <route edges="153413#4 153413#5 153413#6 153413#7 153413#8 153413#9 153413#10 153413#11 153413#12 153413#13 153415#0 153415#1 153331#0 153331#1 153331#2 153331#4 153331#5 153331#6 153331#7 153331#8 153331#9 153331#10 153331#11 153329#4 153329#5 -153412#4 -153412#3 -153420#7 -153420#6 -153420#5"/>
    </vehicle>
    <vehicle id="special_1-3_26" type="special" depart="18402" departLane="best" arrivalPos="random">
        <route edges="-152767#3 -152767#2 -152767#1 -152767#0 -152701#0 152229 152943#0 152943#1 -152814#11 -152814#10 -152814#9 -152814#8 -152814#7 -152814#6 -152814#5 -152814#4 -152814#3 -152814#2 -152814#1 -152814#0 152989 -152901#1 -152901#0 152399#3 152399#0 -152168#1 -152168#0 -152166 -152330#5 -152330#4 -152330#3 -152330#2 -152330#1 -152330#0 153637 152405 -153007#6 -153456#6 -153456#5 -153456#4 -153456#3 -153456#2 -153456#1 -153456#0 153451#5 153435#0 153435#1 153435#2 153435#3 152416#1 152413#0 152413#1 152413#2 152413#3 152252 153395 152253 -153436"/>
    </vehicle>
    <vehicle id="special_1-2_276" type="special" depart="18441" departLane="best" arrivalPos="random">
        <route edges="-152830#1 -152830#0 -153441#1 -153441#0 -153445#1 -153445#0 -153404#8 -153404#7 -153404#6 -153404#5 -153404#4 -153404#3 -153404#2 -153404#1 153554#0 153554#1 153554#2 -153556 -153413#16 -153413#15 -153413#14 -153413#13 -153413#12 -153413#11 -153413#10 -153413#9 -153413#8 -153413#7 -153413#6 -153413#5 -153413#4 -153413#3 -153413#1 -153413#0 153399#0 153399#1 152933#4 152933#0 -153374#14 -153374#13 -153374#12 -153374#11 -153374#10 -153374#9 -153374#8 -153374#7 -153374#6 -153374#5"/>
    </vehicle>
    <vehicle id="special_1-1_268" type="special" depart="18532" departLane="best" arrivalPos="random">
        <route edges="152395 152397#2 -152163#1 -152163#0 152873#3 152298 -152646 -152398#1 -152398#0 152458#3 -152451 152874#1 152874#2 153638 152297#0 152297#0-AddedOffRampEdge 152297#1 152967 152816#2 152816#3 152816#4 152816#5 -152810#2 -152810#1 -152810#0 152775#0 -152381 -152716 -152767#3 -152767#2 -152780 -152701#2 -152701#1 152767#0"/>
    </vehicle>
    <vehicle id="special_3-1_243" type="special" depart="18559" departLane="best" arrivalPos="random">
        <route edges="152532 152204 152326 152203 152328#0 152328#1 152288 152855 152210 152536 152394 153641 152330#0 152330#1 152330#2 152330#3 152330#4 152330#5 152166 -153006#3 -153006#2 -153006#1 -153006#0"/>
    </vehicle>
    <vehicle id="special_2-1_91" type="special" depart="18598" departLane="best" arrivalPos="random">
        <route edges="-152685#0 152694#1 -152694#1 -152694#0 152685#2 152685#3 152697 -152491#1 -152491#0 152701#5 152703 152704 152667#1 152667#2 152667#3 152667#4 152667#5 152667#6 152667#7 152667#8 152667#9 152667#10 152667#11 152605#1 152605#2 152169 152223 152453 152454#1 -152582#4 -152582#3 -152582#2 -152590#2 -152590#1 -152590#0 -153380#4 -153380#3"/>
    </vehicle>
    <vehicle id="special_1-2_169" type="special" depart="18598" departLane="best" arrivalPos="random">
        <route edges="152396#2 152458#2 152458#3 -152451 152874#1 152874#2 153638 152297#0 152297#0-AddedOffRampEdge 152297#1 152967 152816#2 152816#3 152816#4 152816#5 -152810#2 -152810#1 -152810#0 152775#0 152775#2 152775#3 152775#4 152775#5 -152702#1 -152702#0 152667#1 152667#2 152667#3 152667#4 152667#5 152667#6 152667#7 152667#8 152667#9 152667#10 152667#11 152605#1 152605#2 152169 152223 152453 152454#1 -152582#4 -152582#3 -152582#2 -152582#1 -152582#0 152576 152219 152346#1 152221 -153480#7 -153480#6 -153480#5 -153480#4 -153480#3 -153480#2 -153480#1 -153480#0 -153372#1 -153326#4 -153326#3 153361#0 153361#1 153361#2 -153361#2 -153361#1"/>
    </vehicle>
    <vehicle id="special_1-3_233" type="special" depart="18613" departLane="best" arrivalPos="random">
        <route edges="-152810#0 152775#0 -152381 152665 -152775#2 -152775#0 152810#0 152810#1 152810#2 152820 152960#1 152960#2 152960#3 152960#4 152305 152312#0 152312#1 152312#2 -152309 152318#1 152318#2 -152308 152281 152530 -152330#5 -152330#4 -152330#3 -152330#2 -152330#1 -152330#0 153637 153634#1 153636#1 153002#0 152838 153005#1 152235 153338 153641"/>
    </vehicle>
    <vehicle id="special_2-1_228" type="special" depart="18621" departLane="best" arrivalPos="random">
        <route edges="-152911#1 -152911#0 152894#1 152873#1 152873#2 152873#3 152298 -152646 -152398#1 -152398#0 152458#3 -152451 152874#1 152874#2 153638 152297#0 152297#0-AddedOffRampEdge 152297#1 152967 152816#2 152816#3"/>
    </vehicle>
    <vehicle id="special_2-1_5" type="special" depart="18625" departLane="best" arrivalPos="random">
        <route edges="-153404#3 -153404#2 -153404#1 -153404#0 -152707#0 152715 152711#0 152712 152696 -152685#2 -152685#0 152694#1"/>
    </vehicle>
    <vehicle id="special_2-1_111" type="special" depart="18632" departLane="best" arrivalPos="random">
        <route edges="-153479#7 -153479#6 -153479#5 -153479#3 -153479#2 -153479#1 -153479#0 -153476#25 -153476#24 -153476#23 -153476#22 -153476#20 -153476#19 -153476#18 -153476#17 -153476#16 -153476#15 -153476#14 -153476#13 -153476#12 -153476#11 -153476#10 -153476#9 -153476#8 -153476#7 -153476#6 -153476#5 -153476#3 -153476#2 -153476#1 -153476#0 152418 152270 152419#0 152419#1 152308 152318#3 152318#4 152309 152312#3 -152305 -152831#2 -152831#1 -152831#0 152816#4 152816#5 -152810#2 -152810#1 -152810#0 152775#0 152775#2 152775#3 152775#4 152775#5 -152702#1 -152702#0 152667#1 152667#2 152667#3 152667#4 152667#5 152667#6 152667#7 152667#8 152667#9 152667#10 152667#11 152605#1 152605#2 152169 152223 152453 152454#1 -152582#4 -152582#3 -152582#2 -152590#2 -152590#1 -152589 -152284 152594 -152941#3 -152941#2"/>
    </vehicle>
    <vehicle id="special_1-2_82" type="special" depart="18643" departLane="best" arrivalPos="random">
        <route edges="152667#11 152605#1 152605#2 152602 152607 152363#3 152363#0 152363#1 -152669#1 -152669#0 -152226 -152290 -152761 -152291 -152800 -152292 -152794 152293 152385 -152206 152461 152311 152312#2 -152309 152318#1 152318#2 -152308 152281 152530 -152330#5 -152330#4 -152330#3 -152330#2 -152330#1 -152330#0 153637 152405 -153007#6 -153456#6 -153456#5 -153456#4 -153456#3 -153456#2 -153456#1 -153456#0 153451#5 153435#0 153435#1 153435#2 153435#3 152416#1 152413#0 -152750#8 -152750#7 -152750#5 -152750#4 152750#0 153569#0"/>
    </vehicle>
    <vehicle id="special_3-1_102" type="special" depart="18696" departLane="best" arrivalPos="random">
        <route edges="152413#3 152252 153395 152253 -153436 153436 -152253 -153395 -152252 -152413#3 -152413#2 -152413#1 -152413#0 152412 -152537 152928#4 152411 152531 152328#1 152288 152855 152210 152536 152394 153641 152330#0 152330#1 152330#2 152330#3 152330#4 152330#5 152166 152168#0 152168#1 152399#1 152399#2 152901#0 152901#1 152988 152814#0 152814#1 152814#2 152814#3 152814#4 152814#5 152814#6 152814#7 152814#8 152814#9 152814#10"/>
    </vehicle>
    <vehicle id="special_1-2_254" type="special" depart="18709" departLane="best" arrivalPos="random">
        <route edges="152868 152935 152806 -152803 -152799 -152760 -152763 152776 152817#0 152817#1 152817#2 152817#3 152959#5 152779 152818#0 152818#1 152818#2 152818#3 152816#0 152816#1 152816#2 152816#3 152816#4 152816#5 -152810#2 -152810#1 -152810#0 152775#0 -152381 -152716 -152767#3 -152767#2 -152780 -152706#3 -152706#2 -152706#1 -152706#0 -152999 -152997 -153413#16 -153413#15 -153413#14 153415#0 153415#1 153415#2 153415#3 153415#4 153415#5 -153410#6 -153410#5 -153410#4 -153410#3 -153410#2 -153410#1 -153410#0 153423#3 153423#4 152255#0 153042#1 -153042#1 -152255#0 -153423#4 -153423#3"/>
    </vehicle>
    <vehicle id="special_2-1_22" type="special" depart="18731" departLane="best" arrivalPos="random">
        <route edges="-152992 -153492 -153357#2 -153354#2 -153354#1 -153354#0 -153359#1 -153359#0 -153323#4 -153323#3 -153323#2 -153323#1 -153323#0 -153365#4 -153365#3 -153365#1 -153365#0 152346#1 152221 152216 -153378#2 -153378#1 152584"/>
    </vehicle>
    <vehicle id="special_1-1_257" type="special" depart="18739" departLane="best" arrivalPos="random">
        <route edges="152701#2 152780 152767#2 -152546 -152781"/>
    </vehicle>
    <vehicle id="special_1-1_222" type="special" depart="18747" departLane="best" arrivalPos="random">
        <route edges="-152775#0 152810#0 -152804 152939#1 152939#2 152546 -152767#2 -152767#1 -152767#0 -152701#0 152229 152943#0 152793 152785#2 152167 152969#0 152969#1 152969#2 152969#3 152987#0 152987#1 152832#0 -152792#1 -152792#0 -152823#3 -152823#2 -152823#1 -152823#0 -152832#3 -152832#2 -152832#1"/>
    </vehicle>
    <vehicle id="special_1-3_275" type="special" depart="18748" departLane="best" arrivalPos="random">
        <route edges="-152648#4 -152648#3 -152648#2 -152648#1 -152648#0 152647#1 152647#2 153405#0 153405#1 153405#2 153405#3 153406#0 153406#1 153406#2 152940 152684 152174#1 -152701#5 -152701#4 -152701#3 -152701#2 -152701#1 -152701#0 152229 152943#0 152943#1 -152814#11 -152814#10 -152814#9 -152814#8 -152814#7 -152814#6 -152814#5 -152814#4 -152814#3 -152814#2 -152814#1 -152814#0 152989 -152901#1 -152901#0 152399#3 152399#0 -152168#1 -152168#0 -152166 -152330#5 -152330#4 -152330#3 -152330#2 -152330#1 -152330#0 153637 152405 -153007#6 -153456#6 -153456#5 -153456#4 -153456#3 -153456#2 -153456#1 -153456#0 153451#5 153435#0 153435#1 153435#2 153435#3 152416#1 152413#0 152413#1 152413#2 153394#0 153394#1 153394#2 -152479 152479 -153394#2"/>
    </vehicle>
    <vehicle id="special_1-2_119" type="special" depart="18751" departLane="best" arrivalPos="random">
        <route edges="152898#2 -152299 152857 152137#3 152137#4 152137#5 152137#6 152137#7 -152139 152318#4 152309 152312#3 -152305 -152831#2 -152831#1 -152831#0 152816#4 152816#5 -152810#2 -152810#1 -152810#0 152775#0 -152381 -152716 -152767#3 -152767#2 -152780 -152706#3 -152706#2 -152706#1 -152706#0 -152999 -152997 -153413#16 -153413#15 -153413#14 153415#0 153415#1 153331#0 153331#1 153331#2 153331#4 153331#5 153331#6 153331#7 153331#8 153331#9"/>
    </vehicle>
    <vehicle id="special_1-2_214" type="special" depart="18794" departLane="best" arrivalPos="random">
        <route edges="152865 -152803 -152799 -152760 -152763 152776 152817#0 152817#1 152817#2 152817#3 152959#5 152779 152818#0 152818#1 152818#2 152818#3 152816#0 152816#1 152816#2 152816#3 152816#4 152816#5 -152810#2 -152810#1 -152810#0 152775#0 -152381 -152716 -152767#3 -152767#2 -152780 -152706#3 -152706#2 -152706#1 -152706#0 -152999 -152997 -153413#16 -153413#15 -153413#14 153415#0 153415#1 153331#0 153331#1 153331#2 153331#4 153331#5 153331#6 153331#7 153331#8 153331#9 153331#10 153331#11 153329#4 153329#5 153412#5 152251 153385#0 153385#1 152250 153383#0 -153386 152176#1 152176#2 152621"/>
    </vehicle>
    <vehicle id="special_1-3_193" type="special" depart="18799" departLane="best" arrivalPos="random">
        <route edges="152297#0-AddedOffRampEdge 152297#1 152967 152816#2 152816#3 152831#0 152831#1 152831#2 152305 152312#0 152312#1 152312#2 -152309 152318#1 152318#2 152318#3 152139 152137#0 152138 152968 -152270 -152418 -152958 153476#1 153476#2 153476#3 153476#5 153476#6 153476#7 153476#8 153476#9 153476#10 153476#11 153476#12 153476#13 153476#14 153476#15 153476#16 153476#17 153476#18 153476#19 153476#20 153476#22 153476#23 153476#24 153476#25 153476#26 -152303 -153342 -152302 -153477#1 -153477#0 -152257 -152927"/>
    </vehicle>
    <vehicle id="special_1-2_6" type="special" depart="18808" departLane="best" arrivalPos="random">
        <route edges="-152781 -152716 -152767#3 -152767#2 -152780 152701#3 152701#4 152701#5 152703 152705#0 152705#1 152175 152678 152542 152647#0 152647#1 -153401 -153400 -152648#0"/>
    </vehicle>
    <vehicle id="special_2-1_141" type="special" depart="18817" departLane="best" arrivalPos="random">
        <route edges="-153441#2 153446 152830#1 152830#2 152836#5 152836#6 -152814#2 -152814#1 -152814#0 152989 -152901#1 152890 -152890 152901#1 152320 152403 152132 152421 152895#2 152982#0 152982#1 152982#2 -152983 152873#0 152873#1 152873#2 152163#0"/>
    </vehicle>
    <vehicle id="special_1-2_207" type="special" depart="18877" departLane="best" arrivalPos="random">
        <route edges="152795#1 152987#0 152987#1 152832#0 152832#1 152832#2 152832#3 152832#4 152832#5 152832#6 152870#4 152870#5 153006#0 153006#1 153006#2 153006#3 -152166 -152330#5 -152330#4 -152330#3 -152330#2 -152330#1 -152330#0 -152409#3 -153454#1 -153454#0 153454#0 153454#1 152409#3"/>
    </vehicle>
    <vehicle id="special_1-1_48" type="special" depart="18881" departLane="best" arrivalPos="random">
        <route edges="152457#0 152457#1 152457#2 152165#1 152535#0 152535#1 152535#2 152535#4 152535#6 152654#4 152670#3 152670#4 152282 -152290 -152761 -152291 -152800 -152292 -152794 152293 152385 -152206 152461 152311 152312#2 152312#3 -152305 152960#5 152960#6 152766#0 152766#1"/>
    </vehicle>
    <vehicle id="special_2-1_249" type="special" depart="18912" departLane="best" arrivalPos="random">
        <route edges="-153008#6 -153008#5 -153008#4 -153008#3 -153008#2 -153008#1 -153008#0 -153476#9 -153476#8 -153476#7 -153476#6 -153476#5 -153476#3 -153476#2 -153476#1 -153476#0 152418 152270 152419#0 152419#1 152308 152318#3 152318#4 152309 152312#3 152312#0 152271 152423 152206 -152385 -152293 152794 152292 152800 152291 152761 152290 152287 152654#1 152654#2 152654#3 152654#4 152670#3 152670#4"/>
    </vehicle>
    <vehicle id="special_3-1_89" type="special" depart="18916" departLane="best" arrivalPos="random">
        <route edges="-153457 153452#1 153452#2 153451#1 153451#2 153451#3 153451#4 153451#5 153451#6 153451#7 153433#1 152734#0 -152736#2 -152736#1 -152736#0 153391#0 153391#1 153392#1 153387#1 153387#2 -152628#1 -152628#0 -153384#1 -153384#0 -152177 -152176#2 -152176#1 -152176#0 153383#1 153383#2 153383#3 153383#4 153383#5 -152246 153369#0 153369#1 152245 152565 152307 -153372#4 -153372#3 -153372#2 153480#0 153480#1 153480#2 153480#3 153480#4 153480#5 153480#6 153480#7 152216 -153378#2 -153378#1 -153378#0 152218 -152578#1 152172 152173 153375 -152457#2 152457#0"/>
    </vehicle>
    <vehicle id="special_1-1_120" type="special" depart="18985" departLane="best" arrivalPos="random">
        <route edges="-152836#4 -152836#3 -152836#2 -152391 152836#3 152836#4 152836#5 152836#6 152814#3 152814#4 152814#5 152814#6 152814#7 152814#8 152801 152782 153552#2 152870#0 152870#1 152870#2 152870#3 -152832#6 -152832#5 -152832#4 -152832#3 -152832#2"/>
    </vehicle>
    <vehicle id="special_1-2_77" type="special" depart="19048" departLane="best" arrivalPos="random">
        <route edges="-153329#2 -153329#1 -153329#0 152933#3 -153399#1 -153399#0 152649#0 152649#1 152649#2 152649#3 152649#4 152649#5 153406#0 153406#1 153406#2 152940 152684 152174#1 -152701#5 -152701#4 -152701#3 -152701#2 -152701#1 -152701#0 152229 152943#0 152943#1 -152814#11 -152814#10 -152814#9 -152814#8 -152814#7 -152814#6 -152814#5 -152814#4 -152814#3 -152814#2 -152814#1 -152814#0 152989 -152901#1 -152901#0 152399#3 152399#0 -152168#1 -152168#0 -152166 -152330#5 -152330#4 152407 -152407 152330#4 152330#5 152166 -153006#3 -153006#2 -153006#1 -153006#0"/>
    </vehicle>
    <vehicle id="special_1-3_19" type="special" depart="19068" departLane="best" arrivalPos="random">
        <route edges="152781 -152939#2 -152939#1 -152939#0 152810#1 152810#2 152820 152960#1 152960#2 152960#3 152960#4 152305 152312#0 152312#1 152312#2 -152309 152318#1 152318#2 -152308 152281 152530 -152330#5 -152330#4 -152330#3 -152330#2 -152330#1 -152330#0 153637 153634#1 153636#1 153002#0 153002#1 -153458#1 -153458#0 -153459#0 -152256 153460 -153460 152256 153459#0 153459#1"/>
    </vehicle>
    <vehicle id="special_2-1_173" type="special" depart="19090" departLane="best" arrivalPos="random">
        <route edges="152547 -152992 -153492 -153357#2 -153354#2 -153354#1 -153354#0 -153359#1 -153359#0 -153323#4 -153323#3 -153323#2 -153323#1 -153323#0 -153365#4 -153365#3 -153365#1 -153365#0 152346#1 152221 152585#1 152350 152582#0 152582#1 152582#2 152582#3 152582#4 152454#2 152454#3 152454#4 -152453 -152223 -152169 -152605#2 -152605#1 -152605#0 -152667#10 -152667#9 -152667#8 -152667#7 -152667#6 -152667#5 -152667#4 -152667#3 -152667#2 -152667#1 152702#0 152702#1 -152775#5 -152775#4 -152775#3 -152775#2 -152775#0 152810#0 152810#1 152810#2 152820 152960#1 152805#0 -152831#1 152386#1 152386#2 152386#3 -152386#3"/>
    </vehicle>
    <vehicle id="special_2-1_95" type="special" depart="19091" departLane="best" arrivalPos="random">
        <route edges="153476#8 153476#9 153008#0 153008#1 153008#2 153008#3 153008#4 153008#5 153008#6 153008#7 152402#2 152402#3 152899#0 152899#1 152899#2 -152870#4 -152870#3 -152870#2 -152870#1 -152870#0 153552#3 153552#0 152945#0 152945#1 152945#2 152814#11 152759 152230 152785#0 152819 152944#2 152234 152701#0 152701#1 152701#2 -152706#3 -152706#2 -152706#1 -152706#0 -152999 -152997 -153413#16 -153413#15 -153413#14 153415#0 153415#1 153415#2 153415#3 152691 -152691 -153415#3 -153415#2"/>
    </vehicle>
    <vehicle id="special_3-1_199" type="special" depart="19164" departLane="best" arrivalPos="random">
        <route edges="153459#1 153458#1 153005#0 153005#1 152235 153338 153641 152330#0 152330#1 152330#2 152330#3 152330#4 152330#5 152166 -153006#3 -153006#2 -153006#1 -153006#0 -152899#1 -152899#0 152402#0 152402#1 152402#2 152938#0 152938#1 152938#2 152419#1 152308 152318#3 152318#4 152309 152312#3 152312#0 152271 152423 152206 -152385 -152293 152794 152292 152800 152291 152761 152290 152287 152654#1 152654#2 152534#0 152534#2 152534#4 152534#5 152534#6 152534#7 -152165#1 -152457#2 152457#0"/>
    </vehicle>
    <vehicle id="special_2-1_192" type="special" depart="19169" departLane="best" arrivalPos="random">
        <route edges="-153363#1 -153363#0 153363#0 153363#1 153363#2 153363#3 -153365#4 -153365#3 -153365#1 -153365#0 152346#1 152221 152585#1 152350 152582#0 152582#1 152582#2 152582#3 152582#4 152454#2 152454#3 152454#4 -152453 -152223 -152169 -152605#2 -152605#1 -152605#0 -152667#10 -152667#9 -152667#8 -152667#7 -152667#6 -152667#5 -152667#4 152714 152174#0 -152684 -152940 152679 152678 152542 152647#0 152648#0 152648#1 152648#2 152648#3 152648#4 152648#5"/>
    </vehicle>
    <vehicle id="special_3-1_240" type="special" depart="19205" departLane="best" arrivalPos="random">
        <route edges="-153459#0 -152256 153460 -153460 152256 153459#0 153459#1 153458#1 153005#0 153005#1 152235 153338 153641 152330#0 152330#1 152330#2 152330#3 152330#4 152330#5 152166 152168#0 152168#1 152399#1 152399#2 152901#0 152901#1 152320 152403 152132 152421 152895#2 152982#0 152982#1 152982#2 -152983 152873#0 152873#1 152873#2 152873#3 152298 -152646 152398#2 152398#3 152398#4 -152398#4 -152398#3"/>
    </vehicle>
    <vehicle id="special_3-1_97" type="special" depart="19226" departLane="best" arrivalPos="random">
        <route edges="153459#1 153458#1 153005#0 153005#1 152235 153338 153641 152330#0 152330#1 152330#2 152330#3 152330#4 152330#5 152166 152168#0 152168#1 152399#1 152399#2 152901#0 152901#1 152988 152814#0 152814#1 152814#2 152814#3 152814#4 152814#5 152814#6 152814#7 152814#8 152814#9 152814#10 152814#11 152759 152230 152785#0 152819 152944#2 152234 152701#0 152701#1 152701#2 152701#3 152701#4 152701#5 152703 152705#0 152705#1 152175 152678 152542 152647#0 152648#0 153400 153401"/>
    </vehicle>
    <vehicle id="special_1-1_162" type="special" depart="19230" departLane="best" arrivalPos="random">
        <route edges="152857 152137#3 152137#4 152137#5 152137#6 152137#7 -152139 152318#4 152309 152312#3 -152305 -152831#2 -152831#1 -152831#0 152816#4 152816#5 -152810#2 -152810#1 -152810#0 152775#0 -152381 -152716 -152767#3 -152767#2 -152780 -152701#2 -152701#1 152767#0"/>
    </vehicle>
    <vehicle id="special_1-3_125" type="special" depart="19248" departLane="best" arrivalPos="random">
        <route edges="-152783#0 -152805#1 152831#2 152305 152312#0 152312#1 152312#2 -152309 152318#1 152318#2 -152308 152281 152530 -152330#5 -152330#4 -152330#3 -152330#2 -152330#1 -152330#0 153637 152405 -153007#6 -153456#6 -153456#5 -153456#4 -153456#3 -153456#2 -153456#1 -153456#0 -153451#4 -153451#3 -153451#2 -153451#1 -153451#0 -153452#1 -153452#0"/>
    </vehicle>
    <vehicle id="special_1-2_109" type="special" depart="19274" departLane="best" arrivalPos="random">
        <route edges="-152880#0 -152882 -152881 -152884#1 -152884#0 -152885 152889 -152861 -152860 152776 152817#0 152817#1 152817#2 152817#3 152959#5 152779 152818#0 152818#1 152818#2 152818#3 152816#0 152816#1 152816#2 152816#3 152816#4 152816#5 -152810#2 -152810#1 -152810#0 152775#0 -152381 -152716 -152767#3 -152767#2 -152780 -152706#3 -152706#2 -152706#1 -152706#0 152998 152709#1 152693#0 152693#1 152693#2 -152685#0 152694#1"/>
    </vehicle>
    <vehicle id="special_1-3_76" type="special" depart="19311" departLane="best" arrivalPos="random">
        <route edges="152290 152287 152654#1 152654#2 152654#3 152654#4 152670#3 152670#4 152282 -152290 -152761 -152291 -152800 -152292 -152794 152293 152385 -152206 152461 152311 152312#2 -152309 152318#1 152318#2 -152308 152281 152530 -152330#5 -152330#4 -152330#3 -152330#2 -152330#1 -152330#0 153637 152405 -153007#6 -153456#6 -153456#5 -153456#4 -153456#3 -153456#2 -153456#1 -153456#0 153451#5 153435#0 153435#1 153435#2 153435#3 152416#1 152413#0 152413#1 152413#2 152413#3 152252 153395"/>
    </vehicle>
    <vehicle id="special_1-2_67" type="special" depart="19340" departLane="best" arrivalPos="random">