<?xml version="1.0" encoding="UTF-8"?>

<!--
    Monaco SUMO Traffic (MoST) Scenario
    Copyright (C) 2018
    Lara CODECA

    This program is free software: you can redistribute it and/or modify
    it under the terms of the GNU General Public License as published by
    the Free Software Foundation, either version 3 of the License, or
    (at your option) any later version.

    This program is distributed in the hope that it will be useful,
    but WITHOUT ANY WARRANTY; without even the implied warranty of
    MERCHANTABILITY or FITNESS FOR A PARTICULAR PURPOSE.  See the
    GNU General Public License for more details.

    You should have received a copy of the GNU General Public License
    along with this program.  If not, see <http://www.gnu.org/licenses/>.
-->

<routes xmlns:xsi="http://www.w3.org/2001/XMLSchema-instance" xsi:noNamespaceSchemaLocation="http://sumo.dlr.de/xsd/routes_file.xsd"> 
    <vehicle id="special_3-1_206" type="special" depart="18005" departLane="best" arrivalPos="random">
        <route edges="-153452 153447#1 153447#2 153446#1 153446#2 153446#3 153446#4 153446#5 153446#6 153446#7 153428#1 152729#0 -152731#2 -152731#1 -152731#0 153386#0 153386#1 -153387#0 153322#0 153322#1 153322#2 153322#3 153322#4 153322#5 153322#6 153322#7 153322#8 153322#9 153322#11 153322#12 -153330#7 -153330#6 -153330#5 -153330#4 -153330#3 -153330#2 -153330#1 -153330#0 -153439#0 -153436#3 -153436#2 153441 152825#1 152825#2 -152831#4"/>
    </vehicle>
    <vehicle id="special_1-1_28" type="special" depart="18030" departLane="best" arrivalPos="random">
        <route edges="152603 -152601#7 -152601#6 -152601#5 -152601#4 -152601#3 -152601#2 -152612 -152605 -152600#2 -152600#1 -152600#0 -152662#10 -152662#9 -152662#8 -152662#7"/>
    </vehicle>
    <vehicle id="special_3-1_83" type="special" depart="18037" departLane="best" arrivalPos="random">
        <route edges="153452 153454#1 153453#1 153000#0 153000#1 152230 153333 153636 152325#0 152325#1 152325#2 152325#3 152325#4 152325#5 152161 152163#0 152163#1 152394#1 152394#2 152896#0 152896#1 152315 152398 -152953 152890#1 152890#2 152977#0 152977#1 152977#2 152977#3 -152895#1 -152895#0 152970#3 152970#4 152878#0 152878#1 152878#2 152869#5 152869#0 152869#1 152870#0"/>
    </vehicle>
    <vehicle id="special_1-1_210" type="special" depart="18045" departLane="best" arrivalPos="random">
        <route edges="152529#7 152530#0 152530#1 152530#2 152530#4 152530#6 152649#4 152665#3 152665#4 152277 -152285 -152756 -152286 -152795 -152287 -152789 152288 152380 -152201 152456 152306 152307#2 -152304 152313#1 152312 -152893#2 -152893#1 -153554#2 -153554#1 -153554#0"/>
    </vehicle>
    <vehicle id="special_2-1_142" type="special" depart="18063" departLane="best" arrivalPos="random">
        <route edges="153324#2 153324#3 -153326#11 -153326#10 -153326#9 -153326#8 -153326#7 -153326#6 -153326#5 -153326#4 -153326#2 -153326#1 -153326#0 -153410#1 -153410#0 153408#14 153408#15 153408#16 152992 152994 152701#0 152701#1 152701#2 152701#3 -152696#2 -152696#1 -152696#0 152224 152938#0 152938#1 -152809#11 -152940#2 -152940#1 -152940#0 153547#1 153547#2 152865#0"/>
    </vehicle>
    <vehicle id="special_1-2_277" type="special" depart="18067" departLane="best" arrivalPos="random">
        <route edges="152863 152930 152801 -152798 -152794 -152755 -152758 152771 152812#0 152812#1 152812#2 152812#3 152954#5 152774 152813#0 152813#1 152813#2 152813#3 152811#0 152811#1 152811#2 152811#3 152811#4 152811#5 -152805#2 -152805#1 -152805#0 152770#0 152770#2 152770#3 152770#4 152770#5 -152697#1 -152697#0 152662#1 152662#2 152662#3 152662#4 152662#5 152662#6 152662#7 152662#8 152662#9 152662#10 152662#11 152600#1 152600#2 152164 152218 152448 152449#1 -152577#4 -152577#3 -152577#2 -152577#1 -152577#0 152571 152214 153360#0 153360#1 153360#3 153360#4 153318#0 153318#1 153318#2 153318#3 153318#4 153354#0 153354#1 153349#0 153349#1 153349#2 153352#2 153487 -153007#0 153348"/>
    </vehicle>
    <vehicle id="special_1-2_70" type="special" depart="18071" departLane="best" arrivalPos="random">
        <route edges="152762#3 152934#5 -152697#1 -152697#0 152662#1 152662#2 152662#3 152662#4 152662#5 152662#6 152662#7 152662#8 152662#9 152662#10 152662#11 152600#1 152600#2 152164 152218 152448 152449#1 -152577#4 -152577#3 -152577#2 -152577#1 -152577#0 152571 152214 152341#1 152216 -153475#7 -153475#6 -153475#5 -153475#4 -153475#3 -153475#2 152558#0 152558#1 -152558#1 -152558#0 153475#2"/>
    </vehicle>
    <vehicle id="special_1-3_156" type="special" depart="18099" departLane="best" arrivalPos="random">
        <route edges="152603 -152601#7 -152601#6 -152601#5 -152601#4 -152601#3 -152601#2 -152612 -152605 152597 152602 152358#3 152358#0 152358#1 -152664#1 -152664#0 -152221 -152285 -152756 -152286 -152795 -152287 -152789 152288 152380 -152201 152456 152306 152307#2 -152304 152313#1 152313#2 -152303 152276 152525 -152325#5 -152325#4 -152325#3 -152325#2 -152325#1 -152325#0 153632 152400 -153002#6 -153451#6 -153451#5 -153451#4 -153451#3 -153451#2 -153451#1 -153451#0 153446#5 153430#0 153430#1 153430#2 153430#3 152411#1 152408#0 152408#1 152408#2 153389#0 153389#1 153389#2 -152474 152474 -153389#2"/>
    </vehicle>
    <vehicle id="special_1-3_271" type="special" depart="18141" departLane="best" arrivalPos="random">
        <route edges="-152991#6 -152991#5 -152991#4 -152991#3 -152991#2 -152991#0 -153326#4 -153405#9 -153405#8 -153405#7 -153405#6 -153405#5 -153405#4 -153405#3 -153405#2 -153405#1 -153405#0 153418#3 153418#4 152250#0 152250#1 -153435#6 -153435#5 -153435#4 -153435#3 -153435#2 -153435#1 -153435#0 153439#2 153439#3 153439#4 153439#5 152887#1 -152295 152886#0 152886#1 152394#0 -152163#1 -152163#0 -152161 -152325#5 -152325#4 -152325#3 -152325#2 -152325#1 -152325#0 153632 153629#1 153631#1 152997#0 152997#1 -153453#1 -153453#0 -153452"/>
    </vehicle>
    <vehicle id="special_2-1_277" type="special" depart="18149" departLane="best" arrivalPos="random">
        <route edges="-152952 -152278 152549 153651 152278 -152550 -153352#2 -153349#2 -153349#1 -153349#0 -153354#1 -153354#0 -153318#4 -153318#3 -153318#2 -153318#1 -153318#0 -153360#4 -153360#3 -153360#1 -153360#0 152341#1 152216 152580#1 152345 152577#0 152577#1 152577#2 152577#3 152577#4 152449#2 152449#3 152449#4 -152448 -152218 -152164 -152600#2 -152600#1 -152600#0 -152662#10 -152662#9 -152662#8 -152662#7 -152662#6 -152662#5 -152662#4 -152662#3 -152662#2 -152662#1 152697#0 152697#1 -152770#5 -152770#4 -152770#3 -152770#2 -152770#0 152805#0 152805#1 152805#2 152815 152955#1 152800#0 -152826#1 -152826#0 152811#4 -152806"/>
    </vehicle>
    <vehicle id="special_2-1_281" type="special" depart="18158" departLane="best" arrivalPos="random">
        <route edges="-152349#0 152348#3 152348#4 152348#1 152348#2 152349#0 152349#1 -152647#0 -152662#10 -152662#9 -152662#8 -152662#7 -152662#6 -152662#5 -152662#4 -152662#3 -152662#2 -152662#1 152697#0 152697#1 -152770#5 -152770#4 -152770#3 -152770#2 -152770#0 152805#0 152805#1 152805#2 152815 152955#1 152955#2 152955#3 152955#4 152955#5 152955#6 152955#7 152955#8 152955#10 152954#2 152954#3 152954#4 -152812#3 -152812#2 -152812#1 -152812#0 -152771 152758 152755 152794 152798 -152860 -152942 152883 152871 152854"/>
    </vehicle>
    <vehicle id="special_3-1_172" type="special" depart="18168" departLane="best" arrivalPos="random">
        <route edges="153431 -152248 -153390 -152247 -152408#3 -152408#2 -152408#1 -152408#0 152407 152439#1 -153430#3 -153430#2 -153430#1 -153430#0 153446#6 153446#7 153428#1 152729#0 -152731#2 -152731#1 -152731#0 153386#0 153386#1 153387#1 153382#1 153382#2 -152623#1 -152623#0 -153379#1 -153379#0 -152172 -152171#2 -152171#1 -152171#0 -153378#0 -152245 -153380#1 -153380#0 -152246 -153407#5 -153324#5 -153324#4 -153326#11 -153326#10 -153326#9 -153326#8 -153326#7 -153326#6 -153326#5 -153326#4 -153326#2 -153326#1 -153326#0 -153410#1 -153410#0 153408#14 153408#15 153408#16 152992 152994 152701#0 152701#1 152701#2 152701#3 152775 152762#2 152762#3 152711 152376 -152667#2 -152667#1 -152645#0 -152672#5 -152672#4 -152672#3 -152672#2 -152672#1 -152672#0 152649#0 152649#1 152649#2 152649#3 152650 152664#0 152665#0"/>
    </vehicle>
    <vehicle id="special_1-3_161" type="special" depart="18215" departLane="best" arrivalPos="random">
        <route edges="152770#0 -152376 152660 -152770#2 -152770#0 152805#0 152805#1 152805#2 152815 152955#1 152955#2 152955#3 152955#4 152300 152307#0 152307#1 152307#2 -152304 152313#1 152313#2 -152303 152276 152525 -152325#5 -152325#4 -152325#3 -152325#2 -152325#1 -152325#0 153632 153629#1 153631#1 152997#0 152997#1 -153453#1 -153453#0 -153452"/>
    </vehicle>
    <vehicle id="special_1-2_227" type="special" depart="18262" departLane="best" arrivalPos="random">
        <route edges="152342#0 152342#1 152530#0 152530#1 152530#2 152530#4 152530#6 152649#4 152665#3 152665#4 152277 -152285 -152756 -152286 -152795 -152287 -152789 152288 152380 -152201 152456 152306 152307#2 -152304 152313#1 152313#2 -152303 152276 152525 -152325#5 -152325#4 152402 -152402 152325#4 152325#5 152161 -153001#3 -153001#2 -153001#1 -153001#0"/>
    </vehicle>
    <vehicle id="special_2-1_158" type="special" depart="18275" departLane="best" arrivalPos="random">
        <route edges="-153436#0 -153440#1 -153440#0 -153399#8 -153399#7 -153399#6 -153399#5 -153399#4 -153399#3 -153399#2 -153399#1 153549#0 153549#1 153549#2 -153551 -153408#16 -153408#15 -153408#14 153410#0 153410#1 153326#0 153326#1 153326#2 153326#4 152991#0 152991#2 152991#3 152991#4 152991#5 152991#6 152991#7 152991#8"/>
    </vehicle>
    <vehicle id="special_2-1_13" type="special" depart="18318" departLane="best" arrivalPos="random">
        <route edges="-153001#0 -152894#1 -152894#0 152397#0 152397#1 152397#2 152933#0 152933#1 152933#2 152414#1 152303 152313#3 152134 152132#0 152132#1 152132#2 152132#3 152132#4 152132#5 152816#0 152816#1 152816#2 152954#4 -152812#3 -152812#2 -152812#1 -152812#0 -152771 152855 152857 -152884 152861 152859 -152859 -152861 152884 -152856"/>
    </vehicle>
    <vehicle id="special_2-1_149" type="special" depart="18380" departLane="best" arrivalPos="random">
        <route edges="153352#1 -153349#2 -153349#1 -153349#0 -153354#1 -153354#0 -153318#4 -153318#3 -153318#2 -153318#1 -153318#0 -153360#4 -153360#3 -152552#1 -152552#0 153550 -152460#0 152965#1 152572#2 152572#3 152572#4 152140 152168 153370 152160#1 152342#0 152455 -152454#0"/>
    </vehicle>
    <vehicle id="special_3-1_203" type="special" depart="18389" departLane="best" arrivalPos="random">
        <route edges="-153452 153447#1 153447#2 153446#1 153446#2 153446#3 153446#4 153451#0 153451#1 153451#2 153451#3 153451#4 153451#5 153451#6 153002#6 152401 153631#1 152997#0 152833 153000#1 152230 153333 153636 152325#0 152325#1 152325#2 152325#3 152325#4 152325#5 152161 152163#0 152163#1 152394#1 152394#2 152896#0 152896#1 152315 152398 -152953 152890#1 152890#2 152977#0 152977#1 152977#2 -152978 152868#0 152868#1 152868#2 152158#0"/>
    </vehicle>
    <vehicle id="special_3-1_157" type="special" depart="18393" departLane="best" arrivalPos="random">
        <route edges="-152922 -152299 -153473 153473 152299 152922 152252 153472#0 153472#1 152297 153337 152298 -153471#26 -153471#25 -153471#24 -153471#23 -153471#22 -153471#20 -153471#19 -153471#18 -153471#17 -153471#16 -153471#15 -153471#14 -153471#13 -153471#12 -153471#11 -153471#10 -153471#9 -153471#8 -153471#7 -153471#6 -153471#5 -153471#3 -153471#2 -153471#1 -153471#0 152533#0 152533#1 152132#2 152132#3 152132#4 152132#5 152816#0 152821 152813#2 152813#3 152384 152784#0 152417#0 152417#1 -153548"/>
    </vehicle>
    <vehicle id="special_1-3_174" type="special" depart="18412" departLane="best" arrivalPos="random">
        <route edges="152762#1 152762#2 -152541 -152934#2 -152934#1 -152934#0 152805#1 152805#2 152815 152955#1 152955#2 152955#3 152955#4 152300 152307#0 152307#1 152307#2 -152304 152313#1 152313#2 -152303 152276 152525 -152325#5 -152325#4 -152325#3 -152325#2 -152325#1 -152325#0 153632 153629#1 153631#1 152997#0 152997#1 -153453#1 -153453#0 -153452"/>
    </vehicle>
    <vehicle id="special_2-1_167" type="special" depart="18454" departLane="best" arrivalPos="random">
        <route edges="152603 -152601#7 -152601#6 -152601#5 -152601#4 -152601#3 -152601#2 -152612 -152605 152597 152602 152358#3 152358#0 152358#1 -152664#1 -152664#0 -152221 -152285 -152756 -152286 -152795 -152287 -152789 152288 152380 -152201 152456 152306 152307#2 152307#3 -152300 152955#5 152955#6 152955#7 152955#8 152955#10 152954#2 152954#3 152954#4 -152812#3 -152812#2 -152812#1 -152812#0 -152771 152855 152857 -152884 152861 152859"/>
    </vehicle>
    <vehicle id="special_3-1_229" type="special" depart="18460" departLane="best" arrivalPos="random">
        <route edges="153390 152248 -153431 153431 -152248 -153390 -152247 -152408#3 -152408#2 -152408#1 -152408#0 152407 -152532 152923#4 152406 152526 152323#1 152283 152850 152205 152531 152389 153636 152325#0 152325#1 152325#2 152325#3 152325#4 152325#5 152161 152163#0 152163#1 152394#1 152394#2 152896#0 152896#1 152315 152398 -152953 152890#1 152890#2 152977#0 152977#1 152977#2 -152978 152868#0 152868#1 152868#2 152158#0 152158#1"/>
    </vehicle>
    <vehicle id="special_2-1_3" type="special" depart="18464" departLane="best" arrivalPos="random">
        <route edges="-152906#1 -152906#0 152889#1 152868#1 152868#2 152868#3 152293 -152641 152393#2 152393#3 152853 -152393#4 -152393#3"/>
    </vehicle>
    <vehicle id="special_3-1_137" type="special" depart="18464" departLane="best" arrivalPos="random">
        <route edges="-153453#0 -153454#0 -152251 153455 -153455 152251 153454#0 153454#1 153453#1 153000#0 153000#1 152230 153333 153636 152325#0 152325#1 152325#2 152325#3 152325#4 152325#5 152161 152163#0 152163#1 152394#1 152394#2 152394#3 -152886#1 -152886#0 152295 -152887#1 -152887#0 -153439#4 152465"/>
    </vehicle>
    <vehicle id="special_1-2_139" type="special" depart="18486" departLane="best" arrivalPos="random">
        <route edges="-152884 152861 152859 -152859 -152861 152884 -152856 -152855 152771 152812#0 152812#1 152812#2 152812#3 152954#5 152774 152813#0 152813#1 152813#2 152813#3 152811#0 152811#1 152811#2 152811#3 152811#4 152811#5 -152805#2 -152805#1 -152805#0 152770#0 152770#2 152770#3 152770#4 152770#5 -152697#1 -152697#0 152662#1 152662#2 152662#3 152662#4 152662#5 152662#6 152662#7 152662#8 152662#9 152662#10 152647#0 152647#1 -152349#0 152348#3 152348#4 152348#1 -152643#6"/>
    </vehicle>
    <vehicle id="special_1-1_83" type="special" depart="18487" departLane="best" arrivalPos="random">
        <route edges="152865#0 152865#1 152865#2 152865#3 -152827#6 -152827#5 -152827#4 -152827#3 -152827#2 -152827#1 -152827#0 -152982#1 -152982#0 -152790#1 152819#0 152819#1 152132#7 -152134 152313#4 152304 152307#3 152307#0 152266 152418 152201 -152380 -152288 152789 152287 152795 152286 152756 152285 152282 152649#1 152649#2 152529#0 152529#2 152529#4 152529#5 152529#6 152529#7 152342#0 152455 -152454#0"/>
    </vehicle>
    <vehicle id="special_1-1_198" type="special" depart="18500" departLane="best" arrivalPos="random">
        <route edges="152809#6 152809#7 152809#8 152809#9 152809#10 152809#11 152754 152225 152780#0 152814 152939#2 152229 152696#0 152696#1 152696#2 152696#3 152696#4 152696#5 152698 152699 152662#1 152662#2 152662#3 152662#4 152662#5 152662#6 152662#7 152662#8 152662#9 152662#10 152662#11 152600#1 152600#2 152164 152218 152448 152449#1 152449#2 152610#0 152610#1 152610#2 -152314 -152960#1 152450 152451#0 152451#1"/>
    </vehicle>
    <vehicle id="special_1-1_18" type="special" depart="18513" departLane="best" arrivalPos="random">
        <route edges="-152773 153544#1 153544#2 152820#0 152820#1 152955#10 152954#2 152954#3 152954#4 -152812#3 -152812#2 -152812#1 -152812#0 -152771 152855 152857 -152884 152880 152879#0 -152157 152866"/>
    </vehicle>
    <vehicle id="special_2-1_193" type="special" depart="18514" departLane="best" arrivalPos="random">
        <route edges="-152163#0 -152161 -152325#5 -152325#4 152402 -152402 152325#4 152325#5 152161 152163#0 152163#1 152394#1 152394#2 152896#0 152896#1 152983 152809#0 152809#1 152809#2 152809#3 152809#4 152809#5 152809#6 152809#7 152809#8 152809#9 152809#10 152809#11 152754 152225 152780#0 152814 152939#2 152229 152696#0 152696#1 152696#2 152696#3 152696#4 152696#5 152698 152700#0 152700#1 152170 152673 152537 152642#0 152643#0 152643#1 152643#2 152643#3 152643#4 152643#5 152643#6 152348#2 152348#3 152348#4 153374"/>
    </vehicle>
    <vehicle id="special_1-1_130" type="special" depart="18539" departLane="best" arrivalPos="random">
        <route edges="152508#0 152508#1 152348#4 152348#1 152348#2 152349#0 152349#1 -152647#0 -152662#10 -152662#9 -152662#8 -152662#7 -152662#6 -152662#5 -152662#4 -152662#3 -152662#2 -152662#1 152697#0 152697#1 -152770#5 -152770#4 -152770#3 -152770#2 -152770#0 152805#0 152805#1 152805#2 152815 152955#1 152800#0 -152826#1 -152826#0 152811#4 -152806"/>
    </vehicle>
    <vehicle id="special_3-1_243" type="special" depart="18573" departLane="best" arrivalPos="random">
        <route edges="153447#0 153447#1 153447#2 153446#1 153446#2 153446#3 153446#4 153451#0 153451#1 153451#2 153451#3 153451#4 153451#5 153451#6 153002#6 152401 153631#1 152997#0 152833 153000#1 152230 153333 153636 152325#0 152325#1 152325#2 152325#3 152325#4 152325#5 152161 -153001#3 -153001#2 -153001#1 -153001#0 -152894#1 -152894#0 152397#0 152397#1 152397#2 152933#0 152933#1 152933#2 152414#1 152303 152313#3 152313#4 152304 152307#3 -152300 -152826#2 -152826#1 -152826#0 152811#4 -152806"/>
    </vehicle>
    <vehicle id="special_1-3_209" type="special" depart="18646" departLane="best" arrivalPos="random">
        <route edges="152696#4 152486#0 152486#1 152486#2 152486#3 -152707 152706#1 152706#2 152706#3 -152696#3 -152696#2 -152696#1 -152696#0 152224 152938#0 152788 152780#2 152162 152964#0 152964#1 152964#2 152964#3 -152790#1 152819#0 152819#1 152132#7 152132#0 152133 152963 -152265 -152413 -152953 153471#1 153471#2 153471#3 153471#5 153471#6 153471#7 153471#8 153471#9 153471#10 153471#11 153471#12 153471#13 153471#14 153471#15 153471#16 153471#17 153471#18 153471#19 153471#20 153471#22 153471#23 153471#24 153471#25 153471#26 -152298 -153337 -152297 -153472#1 -153472#0 -152252 -152922 -152299 -153473 153473 152299 152922"/>
    </vehicle>
    <vehicle id="special_3-1_197" type="special" depart="18689" departLane="best" arrivalPos="random">
        <route edges="152408#3 152247 153390 152248 -153431 153431 -152248 -153390 -152247 -152408#3 -152408#2 -152408#1 -152408#0 152407 152439#1 -153430#3 -153430#2 -153430#1 -153430#0 153446#6 153446#7 153428#1 152729#0 -152731#2 -152731#1 -152731#0 153386#0 153386#1 153387#1 153382#1 153382#2 -152623#1 -152623#0 -153379#1 -153379#0 -152172 -152171#2 -152171#1 -152171#0 -153378#0 -152245 -153380#1 -153380#0 -152246 -153407#5 -153324#5 -153324#4 -153324#3 -153324#2 -153324#1 -153324#0 152928#3 -153394#1 -153394#0 152644#0 152644#1 152644#2 152644#3 152644#4 152644#5 153401#0 153401#1 153401#2 152674 152673 152537 152642#0 152642#1 152642#2 153400#0 153400#1"/>
    </vehicle>
    <vehicle id="special_1-1_267" type="special" depart="18754" departLane="best" arrivalPos="random">
        <route edges="-152393#3 -152393#2 -152393#1 -152393#0 152453#3 -152446 152869#1 152869#2 153633 152292#0 152292#0-AddedOffRampEdge 152292#1 152962 152811#2 152811#3 152811#4 152811#5 -152805#2 -152805#1 -152805#0 152770#0 152770#2 152770#3 152770#4 152770#5 -152697#1 -152697#0 152662#1 152662#2 152662#3 152662#4 152662#5 152662#6 152662#7 152662#8 152662#9 152662#10 152662#11 152600#1 152600#2 152164 152218 152448 152449#1 -152577#4 -152577#3 -152577#2 -152585#2 -152585#1 -152585#0 -153375#4 -153375#3 -153375#2 -153375#1 -153375#0"/>
    </vehicle>
    <vehicle id="special_3-1_74" type="special" depart="18764" departLane="best" arrivalPos="random">
        <route edges="153473 152299 152922 152252 153472#0 153472#1 152297 153337 152298 -153471#26 -153471#25 -153471#24 -153471#23 -153471#22 -153471#20 -153471#19 -153471#18 -153471#17 -153471#16 -153471#15 -153471#14 -153471#13 -153471#12 -153471#11 -153471#10 -153471#9 -153471#8 -153471#7 -153471#6 -153471#5 -153471#3 -153471#2 -153471#1 -153471#0 152533#0 152533#1 152132#2 152132#3 152132#4 152132#5 152816#0 152816#1 152816#2 152954#4 -152812#3 -152812#2 -152812#1 -152812#0 -152771 152855 152857 -152884 152880 152879#0 152879#1 152876 152877 152937"/>
    </vehicle>
    <vehicle id="special_1-1_205" type="special" depart="18773" departLane="best" arrivalPos="random">
        <route edges="-152688#2 -152688#1 -152688#0 152704#2 152701#1 152701#2 152701#3 -152696#2 -152696#1 -152696#0 152224 152938#0 152788 152780#2 152162 152964#0 152964#1 152964#2 152964#3 152982#0 152982#1 152827#0 -152787#1 -152787#0 -152818#3 -152818#2"/>
    </vehicle>
    <vehicle id="special_1-2_240" type="special" depart="18817" departLane="best" arrivalPos="random">
        <route edges="-152931 -152500 -152861 152884 -152856 -152855 152771 152812#0 152812#1 152812#2 152812#3 152954#5 152774 152813#0 152813#1 152813#2 152813#3 152811#0 152811#1 152811#2 152811#3 152811#4 152811#5 -152805#2 -152805#1 -152799 152934#1 152934#2 152541 -152762#2 -152775 -152701#3 -152701#2 -152701#1 -152701#0 -152994 -152992 -153408#16 -153408#15 -153408#14 -153408#13 -153408#12 -153408#11 -153408#10 -153408#9 -153408#8 -153408#7 -153408#6 -153408#5 -153408#4 -153408#3 -153408#1 -153408#0 153394#0 153394#1 152928#4 152928#0 152928#1 152583 -152586#4 -152586#3"/>
    </vehicle>
    <vehicle id="special_1-3_242" type="special" depart="18842" departLane="best" arrivalPos="random">
        <route edges="152158#0 152158#1 152392#0 152392#1 152392#2 -152158#1 -152158#0 -152868#2 -152868#1 -152868#0 152978 152977#3 152977#4 152968 -152890#1 153471#1 153471#2 153471#3 153471#5 153471#6 153471#7 153471#8 153471#9 153471#10 153471#11 153471#12 153471#13 153471#14 153471#15 153471#16 153471#17 153471#18 153471#19 153471#20 153471#22 153471#23 153471#24 153471#25 153471#26 -152298 -153337 -152297 -153472#1 -153472#0 -152252 -152922"/>
    </vehicle>
    <vehicle id="special_1-1_150" type="special" depart="18846" departLane="best" arrivalPos="random">
        <route edges="152797 152813#1 152813#2 152813#3 152811#0 152811#1 152811#2 152811#3 152811#4 152811#5 -152805#2 -152805#1 -152805#0 152770#0 152770#2 152770#3 152770#4 152770#5 -152697#1 -152697#0 152662#1 152662#2 152662#3 152662#4 152662#5 152662#6 152662#7 152662#8 152662#9 152662#10 152662#11 152600#1 152600#2 152164 152218 152448 152449#1 -152577#4 -152577#3 -152577#2 -152585#2 -152585#1 -152584 -152279 152589 -152936#3 -152936#2"/>
    </vehicle>
    <vehicle id="special_1-3_113" type="special" depart="18898" departLane="best" arrivalPos="random">
        <route edges="-152827#1 -152827#0 -152982#1 -152982#0 -152790#1 152819#0 152819#1 152132#7 -152134 152313#4 152313#1 152313#2 -152303 152276 152525 -152325#5 -152325#4 -152325#3 -152325#2 -152325#1 -152325#0 153632 152400 -153002#6 -153451#6 -153451#5 -153451#4 -153451#3 -153451#2 -153451#1 -153451#0 153446#5 153430#0 153430#1 153430#2 153430#3 152411#1 152408#0 152408#1 152408#2 152408#3 152247 153390 152248 -153431"/>
    </vehicle>
    <vehicle id="special_1-3_154" type="special" depart="18905" departLane="best" arrivalPos="random">
        <route edges="152508#0 152508#1 152348#4 152348#1 152348#2 152349#0 152349#1 -152647#0 -152662#10 -152662#9 -152662#8 -152662#7 -152662#6 -152662#5 -152662#4 -152662#3 -152662#2 -152662#1 152697#0 152697#1 -152770#5 -152770#4 -152770#3 -152770#2 -152770#0 152805#0 152805#1 152805#2 152815 152955#1 152955#2 152955#3 152955#4 152300 152307#0 152307#1 152307#2 -152304 152313#1 152313#2 152313#3 152134 152132#0 152133 152963 -152265 -152413 -152953 153471#1 153471#2 153471#3 153471#5 153471#6 153471#7 153471#8 153471#9 153471#10 153471#11 153471#12 153471#13 153471#14 153471#15 153471#16 153471#17 153471#18 153471#19 153471#20 153471#22 153471#23 153471#24 153471#25 153471#26 -152298 -153337 -152297 -153472#1 -153472#0 -152252 -152922"/>
    </vehicle>
    <vehicle id="special_1-2_144" type="special" depart="18932" departLane="best" arrivalPos="random">
        <route edges="152610#2 -152314 -152960#1 152450 152451#0 152451#1 -152450 152960#1 152314 -152610#2 -152610#1 -152610#0 152449#3 152449#4 -152448 -152218 -152164 -152600#2 -152600#1 -152600#0 -152662#10 -152662#9 -152662#8 -152662#7 -152662#6 -152662#5 -152662#4 152709 152169#0 152169#1 -152696#5 -152696#4 -152696#3 -152701#3 -152703#1 -152703#0 152966#1 152966#2 152966#3 152966#4"/>
    </vehicle>
    <vehicle id="special_1-1_98" type="special" depart="18945" departLane="best" arrivalPos="random">
        <route edges="152709 152169#0 152169#1 -152696#5 -152696#4 -152696#3 152775 152762#2 -152541 -152934#2 -152934#1 -152934#0 152805#1 152805#2 152815 152955#1 152955#2 152955#3 152955#4 152955#5 152955#6 152955#7 152955#8 -153268#2 -153268#1 -153268#0"/>
    </vehicle>
    <vehicle id="special_3-1_65" type="special" depart="19002" departLane="best" arrivalPos="random">
        <route edges="153447#0 153447#1 153447#2 153446#1 153446#2 153446#3 153446#4 153446#5 153446#6 153446#7 153428#1 152729#0 -152731#2 -152731#1 -152731#0 153386#0 153386#1 -153387#0 153322#0 153322#1 153322#2 153322#3 153322#4 153322#5 153322#6 153322#7 153322#8 153322#9 153322#11 153322#12 -153330#7 -153330#6 -153330#5 -153330#4 -153330#3 -153330#2 -153330#1 -153330#0 -153439#0 -153436#3 -153436#2 -153436#1 153438 152807#1 152807#2 152807#3 152807#4 152807#5 152809#8 152809#9 152809#10 152809#11 152754 152225 152780#0 152814 152939#2 152229 152696#0 152696#1 152696#2"/>
    </vehicle>
    <vehicle id="special_1-1_258" type="special" depart="19040" departLane="best" arrivalPos="random">
        <route edges="-152201 152456 152306 152307#2 152307#3 -152300 -152826#2 -152826#1 -152826#0 152811#4 152811#5 -152805#2 -152805#1 -152799 152934#1 152934#2 152541 -152762#2 -152762#1 -152762#0 -152696#0 152224 152938#0 152938#1 -152809#11 -152940#2 -152802 152809#10"/>
    </vehicle>
    <vehicle id="special_1-2_257" type="special" depart="19051" departLane="best" arrivalPos="random">
        <route edges="-152393#3 -152393#2 152641 -152293 -152868#3 -152868#2 -152868#1 -152868#0 152978 152977#3 152977#4 152968 -152890#1 -153471#0 152413 152265 152414#0 152414#1 152276 152525 -152325#5 -152325#4 -152325#3 -152325#2 -152325#1 -152325#0 153632 152400 -153002#6 -153451#6 -153451#5 -153451#4 -153451#3 -153451#2 -153451#1 -153451#0 153446#5 153446#6 153446#7 153428#1 152729#0 -152731#2 -152731#1 -152731#0 -152718#1 -152718#0"/>
    </vehicle>
    <vehicle id="special_1-3_87" type="special" depart="19053" departLane="best" arrivalPos="random">
        <route edges="-153436#2 153441 152825#1 152825#2 -152831#4 -152831#3 -152831#2 -152831#1 -152831#0 153439#5 152887#1 -152295 152886#0 152886#1 152394#0 -152163#1 -152163#0 -152161 -152325#5 -152325#4 -152325#3 -152325#2 -152325#1 -152325#0 153632 153629#1 153631#1 152959 -152531 -152205 -152850 -152283 152320#0 152320#1 152197 152322 152200 152324"/>
    </vehicle>
    <vehicle id="special_3-1_199" type="special" depart="19074" departLane="best" arrivalPos="random">
        <route edges="153389#2 -152474 152474 -153389#2 -153389#1 -153389#0 -152408#2 -152408#1 -152408#0 152407 -152532 152923#4 152406 152526 152323#1 152283 152850 152205 152531 152389 153636 152325#0 152325#1 152325#2 152325#3 152325#4 152325#5 152161 -153001#3 -153001#2 -153001#1 -153001#0 -152894#1 -152894#0 152397#0 152397#1 152397#2 152933#0 152933#1 152933#2 152414#1 152303 152313#3 152313#4 152304 152307#3 -152300 152955#5 152955#6 152761#0"/>
    </vehicle>
    <vehicle id="special_3-1_99" type="special" depart="19085" departLane="best" arrivalPos="random">
        <route edges="-152898 153453#1 153000#0 153000#1 152230 153333 153636 152325#0 152325#1 152325#2 152325#3 152325#4 152325#5 152161 152163#0 152163#1 152394#1 152394#2 152896#0 152896#1 152315 152398 -152953 152890#1 152890#2 152977#0 152977#1 152977#2 152977#3 -152895#1 -152895#0 152970#3 152970#4 152878#0 152878#1 152878#2 152869#5 152869#0 152869#1 152869#2 153633 152292#0 152292#0-AddedOffRampEdge 152292#1 152962"/>
    </vehicle>
    <vehicle id="special_1-2_191" type="special" depart="19087" departLane="best" arrivalPos="random">
        <route edges="152991#8 -153394#0 153408#0 153408#1 153408#3 153408#4 153408#5 153408#6 153408#7 153408#8 153408#9 153408#10 153408#11 153408#12 153408#13 153408#14 153408#15 153408#16 153551 -153549#2 -153549#1 -153549#0 153399#1"/>
    </vehicle>
    <vehicle id="special_3-1_91" type="special" depart="19114" departLane="best" arrivalPos="random">
        <route edges="-152922 -152299 -153473 153473 152299 152922 152252 153472#0 153472#1 152297 153337 152298 -153471#26 -153471#25 -153471#24 -153471#23 -153471#22 -153471#20 -153471#19 -153471#18 -153471#17 -153471#16 -153471#15 -153471#14 -153471#13 -153471#12 -153471#11 -153471#10 -153471#9 -153471#8 -153471#7 -153471#6 -153471#5 -153471#3 -153471#2 -153471#1 -153471#0 152413 152265 152414#0 152414#1 152303 152313#3 152313#4 152304 152307#3 -152300 -152826#2 -152826#1 -152826#0 152811#4 152811#5 -152805#2 -152805#1 -152805#0 152770#0 152770#2 152770#3 152770#4 152770#5 -152697#1 -152697#0 152662#1 152662#2 152662#3 152662#4 152662#5 152662#6 152662#7 152662#8 152662#9 152662#10 152662#11 152600#1 152600#2 152164 152218 152448 152449#1 -152577#4 -152577#3 -152577#2"/>
    </vehicle>
    <vehicle id="special_3-1_244" type="special" depart="19120" departLane="best" arrivalPos="random">
        <route edges="-152898 153453#1 153000#0 153000#1 152230 153333 153636 152325#0 152325#1 152325#2 152325#3 152325#4 152325#5 152161 -153001#3 -153001#2 -153001#1 -153001#0"/>
    </vehicle>