<?xml version="1.0" encoding="UTF-8"?>

<!-- generated on Thu Apr 26 16:59:20 2018 by Eclipse SUMO duarouter Version 1c6dcbf191
<configuration xmlns:xsi="http://www.w3.org/2001/XMLSchema-instance" xsi:noNamespaceSchemaLocation="http://sumo.dlr.de/xsd/duarouterConfiguration.xsd">

    <input>
        <net-file value="../scenario/in/most.net.xml"/>
        <additional-files value="../scenario/in/add/most.busstops.add.xml,../scenario/in/add/most.trainstops.add.xml,../scenario/in/add/most.parkings.add.xml,../scenario/in/add/basic.vType.xml"/>
        <route-files value="out/most.evehicle.trips.xml"/>
    </input>

    <output>
        <output-file value="../scenario/in/route/most.evehicle.rou.xml"/>
        <vtype-output value="/dev/null"/>
        <alternatives-output value="../scenario/in/route/most.evehicle.rou.alt.xml"/>
    </output>

    <processing>
        <ignore-errors value="true"/>
        <max-alternatives value="5"/>
        <remove-loops value="false"/>
        <repair value="false"/>
        <repair.from value="false"/>
        <repair.to value="false"/>
        <routing-threads value="4"/>
        <routing-algorithm value="dijkstra"/>
    </processing>

    <time>
        <begin value="0"/>
        <end value="84600"/>
    </time>

</configuration>
-->

<routes xmlns:xsi="http://www.w3.org/2001/XMLSchema-instance" xsi:noNamespaceSchemaLocation="http://sumo.dlr.de/xsd/routes_file.xsd">
    <vehicle id="evehicle_1_57" type="evehicle" depart="18064.00" departLane="best">
        <route edges="108 584#0 585#0 585#1 585#2 585#3 1481 593#0 593#1 593#2 593#3 593#4 593#5 564#0 588#1 588#2 691#2 -580 -632 -683#3 -683#2 -683#1 -683#0 -617#0 111 862#0 862#1 -730#11 -730#10 -730#9 -730#8 -730#7 -730#6 -730#5 -730#4 -730#3 -730#2 813 730#1 730#2 730#3 730#4"/>
    </vehicle>
    <vehicle id="evehicle_1_410" type="evehicle" depart="18087.00" departLane="best">
        <route edges="742 734#2 734#3 734#4 732#0 732#1 732#2 732#3 747#0 282#1 282#2 -700#1 -700#0 -682#1 -682#0 879#7 879#8 879#9 -741#1 -741#0 -1480#3 -1480#2 -1480#1 -1480#0 -888#1 -743#1 -743#0 1484#0 1484#1 -698 -717 -730#8 -728#5 -728#4 -728#3 -728#2 -728#1 -728#0 1369#1 1369#2 1369#3 -1368#0 1256#0 1256#1 1256#2 1256#3 1256#4 1256#5 1256#6 1256#7 -1248#12 -1248#11 -1248#10 -1248#9 -958 1248#11 1248#12 -1256#7 -1256#6 -1256#5 -1256#4"/>
    </vehicle>
    <vehicle id="evehicle_3_243" type="evehicle" depart="18096.00" departLane="best">
        <route edges="771 290 1578 223#0 223#1 223#2 223#3 223#4 223#5 223#6 223#7 223#8 223#9 223#10 295#1 295#2 818#0 818#1 213 299 -877 812#1 812#2 902#0 902#1 902#2 902#3 -817#1 -804#2 -804#1 -804#0 1492"/>
    </vehicle>
    <vehicle id="evehicle_1_438" type="evehicle" depart="18337.00" departLane="best">
        <route edges="726#1 726#2 857#2 857#3 857#4 857#0 857#1 -726#2 -726#1 -726#0 691#0 691#2 691#3 691#4 691#5 -618#1 -618#0 582#1 582#2 582#3 630#1 621#2 594 447 561#0 562#0 562#1 562#2 562#3 562#4 562#5 562#6 247#2 248#0"/>
    </vehicle>
    <vehicle id="evehicle_1_183" type="evehicle" depart="18428.00" departLane="best">
        <route edges="-278 -687 865 -693 280 732#0 732#1 732#2 732#3 747#0 282#1 282#2 -700#1 -700#0 -682#1 -682#0 879#7 879#8 879#9 -741#1 -741#0 -1480#3 -1480#2 -1480#1 -1480#0 -888#1 -888#0 863#0 863#1 863#2 111 862#0 862#1 675"/>
    </vehicle>
    <vehicle id="evehicle_3_416" type="evehicle" depart="18448.00" departLane="best">
        <route edges="164 422 431 469 415#3 415#4 1309#0 1309#1 1309#2 1309#3 1309#4 1309#5 1309#6 1309#7 1311#2 1311#3 1311#4 1297#0 1297#1 199#0 199#1 -1300#4 -1300#3 -1300#2 1408#0 1408#1 1408#2 1408#3 1408#4 1408#5 1408#6 1408#7 497#1 243 494#0 494#1 -502#2 -502#1 -501 -860#3 -860#2 -860#1 -860#0 884#0 884#1"/>
    </vehicle>
    <vehicle id="evehicle_2_386" type="evehicle" depart="18489.00" departLane="best">
        <route edges="1408#1 1408#2 1408#3 1408#4 1408#5 1408#6 1408#7 497#1 243 494#0 494#1 494#2 494#3 494#4 351#2 351#3 351#4 -350 -519#2 -519#1 -519#0 -582#10 -582#9 -582#8 -582#7 -582#6 -582#5 -582#4 630#1 630#2 630#3 -617#5 394#0 394#1 394#2 394#3"/>
    </vehicle>
    <vehicle id="evehicle_2_59" type="evehicle" depart="18629.00" departLane="best">
        <route edges="-1501 -1413#0 1279 1288#0 1288#1 1247#1 1247#2 1247#3 1247#4 1300#1 1408#0 1408#1 1408#2 1408#3 1408#4 1408#5 1408#6 1408#7 97 -1306#2 -1306#1 -1306#0 238#0 238#1 -491#1 -491#0 -499#2 -499#1 -499#0"/>
    </vehicle>
    <vehicle id="evehicle_2_47" type="evehicle" depart="18733.00" departLane="best">
        <route edges="-1317#3 -1317#2 -1317#0 -538#3 -538#2 -538#1 -538#0 -1352#1 650#0 -652#2 -652#1 -652#0 1319#0 1319#1 1494#0 1494#1 1494#2 1320 1315#1 1315#2 -542#1 -542#0 -1312#5 -1312#4 -1312#3 -1312#2 -1312#1 -1312#0 -1311#0 -1313#0 -1250#5 -1250#4 -1252#11 -1252#10 -1252#9 -1252#8 -1252#7 -1252#6 -1252#5 -1252#4 -1252#2 -1252#1 -1252#0 -1343#1 -1343#0 1341#14 1341#15 1341#16 918 920 622#0 622#1 622#2 622#3 617#3 617#4 394#0 394#1 394#2 394#3"/>
    </vehicle>
    <vehicle id="evehicle_2_344" type="evehicle" depart="18811.00" departLane="best">
        <route edges="493#3 493#4 -470 1291#3 -1293#4 -1293#3 -1293#2 -1293#1 -1293#0 239#1 103 497#1 243 494#0 494#1 494#2 494#3 494#4 351#2 351#3 351#4 -350 -519#2 -519#1 -519#0 -582#10 -582#9 -582#8 -582#7 -582#6 -582#5 -582#4 630#1 630#2 630#3 -617#5 -617#4 -617#3 -622#3 -622#2 -622#1 -622#0 -920 -1486#3 -1486#2 -1486#1 -1486#0 1332#1 1332#2 1332#3 1332#4 1332#5 1332#6 1332#7 1332#8 1373#0 1373#1 1369#0 1369#1 1369#2 1369#3 -1368#0 1372#2 1372#3 1372#4 752#0"/>
    </vehicle>
    <vehicle id="evehicle_1_290" type="evehicle" depart="18970.00" departLane="best">
        <route edges="885#1 358#1 358#2 358#3 -348 791#1 791#2 1575 189#0 189#1 886 732#2 732#3 732#4 732#5 857#0 857#1 -726#2 -726#1 -726#0 691#0 -588#2 -588#1 -564#0 -593#5 583#0 583#1 -579#6 -579#5 -579#4 -579#3 -579#2 -579#1 -579#0 257#1 257#2 -521#1"/>
    </vehicle>
    <vehicle id="evehicle_2_175" type="evehicle" depart="18983.00" departLane="best">
        <route edges="1419#8 1419#9 532#1 1298#1 1299#1 1299#2 1299#3 1299#4 415#4 1309#0 1309#1 1309#2 1309#3 1309#4 1309#5 1309#6 1309#7 -1311#1 -1311#0 -1313#0 -1250#5 -1250#4 -1252#11 -1252#10 -1252#9 -1252#8 -1252#7 -1252#6 -1252#5 -1252#4 -1252#2 -1252#1 -1252#0 -1343#1 -1343#0 1341#14 1341#15 1341#16 918 920 622#0 622#1 622#2 622#3 696 683#2 -455 -858#2 -858#1 -858#0 726#1 726#2 857#2 857#3 736 879#1 879#2 363"/>
    </vehicle>
    <vehicle id="evehicle_1_339" type="evehicle" depart="19167.00" departLane="best">
        <route edges="-698 -717 730#9 723 -864#1 -864#0 1484#1 1484#2 1484#3 743#0 743#1 888#1 888#2 888#3 888#4"/>
    </vehicle>
    <vehicle id="evehicle_1_335" type="evehicle" depart="19198.00" departLane="best">
        <route edges="585#1 585#2 585#3 585#4 174 -182 -677 -183 -716 -184 -710 185 281 362 204 205#2 205#3 -197 879#5 879#6 879#7 879#8 879#9 -741#1 -741#0 -1480#3"/>
    </vehicle>
    <vehicle id="evehicle_2_34" type="evehicle" depart="19217.00" departLane="best">
        <route edges="520#9 416#1 247#4 247#1 -562#6 -562#5 -562#4 -562#3 -562#2 -562#1 -562#0 561#1 561#2 1333#0 1333#1 1333#2 1333#3 1334#0 1334#1 1334#2 859 600 630#3 -617#5 -617#4 -617#3 -617#2 -617#1 -617#0 111 862#0 709 701#2 888#0 888#1 1480#0 1480#1 694"/>
    </vehicle>
    <vehicle id="evehicle_3_72" type="evehicle" depart="19389.00" departLane="best">
        <route edges="456 -913 -1422 -1285#2 -1282#2 -1282#1 -1282#0 -1287#1 -1287#0 851#3 851#0 -468#6 -468#5 -468#3 -468#2 -468#1 -468#0 1300#1 1408#0 1408#1 1408#2 1408#3 1408#4 1408#5 1408#6 1408#7 497#1 243 494#0 494#1 494#2 494#3 494#4 351#2 351#3 351#4 -350 -519#2 -519#1 -519#0 -582#10 -582#9 -582#8 -582#7 -582#6 -582#5 -582#4 630#1 630#2 630#3 -617#5 394#0 394#1 -613 -601#3 -601#2 -601#1 -601#0"/>
    </vehicle>
    <vehicle id="evehicle_2_207" type="evehicle" depart="19611.00" departLane="best">
        <route edges="1393#1 1393#2 1393#3 1390#2 1390#3 1390#4 1390#5 -1404#11 -1404#10 -1404#9 -1404#8 -1404#7 -1404#6 -1404#5 -1404#3 -1404#2 -1404#1 -1404#0 315 162 316#0 316#1 201 211#3 211#4 202 205#3 205#0 163 320 81 -185 710 184 716 183 677 182 179 569#1 569#2 439#0 439#2 439#4 439#6 439#7 439#9 360#3 360#4 360#5"/>
    </vehicle>
    <vehicle id="evehicle_1_10" type="evehicle" depart="19686.00" departLane="best">
        <route edges="-287 752#3 752#4 752#5 752#6 -730#2 -730#1 -730#0 909 213 299 -877 1404#1 1404#2 1404#3 1404#5 1404#6 1404#7 1404#8 1404#9 929#0 929#1 929#2 929#3 929#4 929#5 929#6"/>
    </vehicle>
    <vehicle id="evehicle_3_91" type="evehicle" depart="19711.00" departLane="best">
        <route edges="-928#5 -928#4 -928#3 -928#2 -928#0 -848#0 -825#7 -825#6 -825#5 -825#3 -825#2 -825#1 -825#0 1361#1 650#0 -652#2 -652#1 -652#0 1319#0 1319#1 1494#0 1494#1 1494#2 1320 1315#1 1315#2 -542#1 -542#0 -1312#5 -1312#4 -1312#3 -1312#2 -1312#1 -1312#0 -1311#0 -1313#0 -1250#5 -1250#4 -1250#3 -1250#2 -1250#1 -1250#0 850#3 -1327#1 -1327#0 563#0 563#1 563#2 563#3 563#4 563#5 1334#0 1334#1 1334#2 859 600"/>
    </vehicle>
    <vehicle id="evehicle_3_378" type="evehicle" depart="19718.00" departLane="best">
        <route edges="-928#6 -1384#6 -1384#5 -1384#4 -1384#3 -1384#2 -1384#1 -1384#0 1379#5 1379#6 1379#7 1361#1 650#0 -652#2 -652#1 -652#0 1319#0 1319#1 1494#0 1494#1 1248#0 1248#1 1248#2 1248#3 1248#4 1248#5 1248#6 1248#7 1248#8 1248#9 1248#10 1248#11 1248#12 -1256#7 -1256#6 -1256#5 -1256#4 -1256#3 -1256#2 -1256#1 -1256#0 -1372#0 -1369#3 -1369#2 -1369#1 1371 728#1 728#2 728#3 728#4 728#5 730#8 717 698 1484#2 1484#3 743#0 743#1 888#1 1480#0 1480#1 1480#2 1480#3 741#0 741#1 879#11 878#1 878#2 878#3 878#4 695 734#0 734#1 734#2 734#3 284#0 284#1 693"/>
    </vehicle>
    <vehicle id="evehicle_2_56" type="evehicle" depart="19856.00" departLane="best">
        <route edges="963#0 143#1 -1368#5 -1368#4 -1368#3 -1368#2 -1368#1 -1369#3 -1369#2 -1369#1 1371 728#1 728#2 728#3 728#4 728#5 730#8 717 698 1484#2 1484#3 743#0 743#1 -707#1 -707#0"/>
    </vehicle>
    <vehicle id="evehicle_2_215" type="evehicle" depart="19868.00" departLane="best">
        <route edges="-825#3 -825#2 -825#1 -825#0 1361#1 650#0 -652#2 -652#1 -652#0 1319#0 1319#1 1494#0 1494#1 1494#2 1320 1315#1 1315#2 -542#1 -542#0 -1312#5 -1312#4 -1312#3 -1312#2 -1312#1 -1312#0 1311#1 1311#2 1311#3 1311#4 1297#0 1297#1 199#0 199#1 -1300#4 -1300#3 -1300#2 1408#0 1408#1 1408#2 1408#3 1408#4 1408#5 1408#6 1408#7 97 -1306#2 -1306#1 -1306#0 1303#0 1303#1 1303#2 355#0 355#1 355#2 360#1"/>
    </vehicle>
    <vehicle id="evehicle_3_399" type="evehicle" depart="19939.00" departLane="best">
        <route edges="196 844 1405#1 194 1263 195 -1404#27 -1404#26 -1404#25 -1404#24 -1404#23 -1404#21 -1404#20 -1404#19 -1404#18 -1404#17 -1404#16 -1404#13 -1404#12 -1404#11 -1404#10 -1404#9 -1404#8 -1404#7 -1404#6 -1404#5 -1404#3 -1404#2 -1404#1 -1404#0 315 162 316#0 316#1 201 211#3 211#4 202 205#3 -197 879#5 879#6 879#7 879#8 879#9 -741#1 -741#0 -1480#3 -1480#2 -1480#1 -1480#0 -888#1 -888#0 863#0 863#1 863#2 617#0 617#1 617#2 -622#3 -622#2 -622#1 -622#0 -920 -1486#3 -1486#2 -1486#1 -1486#0 -1332#0"/>
    </vehicle>
    <vehicle id="evehicle_1_20" type="evehicle" depart="19948.00" departLane="best">
        <route edges="-375#0 -592#2 -592#1 -592#0 593#4 593#5 564#0 588#1 588#2 -691#0 726#0 726#1 726#2 857#2 857#3 736 879#1 879#2 879#3 879#4 197 205#0 205#1 205#2 -202 211#1 210 -815#2 -815#1 -815#0 894 804#1 804#2 817#1"/>
    </vehicle>
    <vehicle id="evehicle_2_52" type="evehicle" depart="20007.00" departLane="best">
        <route edges="-1353 -1354#0 1357 -661 -825#0 1361#1 650#0 -652#2 -652#1 -652#0 1319#0 1319#1 1494#0 1494#1 1248#0 1248#1 1248#2 1248#3 1248#4 1248#5 1248#6 1248#7 1248#8 1248#9 1248#10 1248#11 1248#12 -1256#7 -1256#6 -1256#5 -1256#4 -1256#3 -1256#2 -1256#1 -1256#0 1372#2 1372#3 1372#4 1372#5 809#1 -192 808#0 808#1 295#0 295#1 295#2 818#0 818#1 213 299 -877 812#1 812#2 902#0 902#1 902#2 902#3 -817#1 -817#0 895#3 895#4 800#0 800#1 800#2 791#5 791#0 791#1 791#2 791#3 791#4 -800#2"/>
    </vehicle>
    <vehicle id="evehicle_2_1" type="evehicle" depart="20024.00" departLane="best">
        <route edges="-1404#0 315 162 316#0 316#1 201 211#3 17 15#0 15#1 15#2 15#3 15#4 15#5 737#0 737#2 878#3 -733#3 -733#2 -733#1 -733#0 -692 679 -688 -689 690 715 719 -782 -866 805 793"/>
    </vehicle>
    <vehicle id="evehicle_2_458" type="evehicle" depart="20072.00" departLane="best">
        <route edges="-683#0 617#1 617#2 -622#3 -622#2 -622#1 -622#0 -920 -918 -1341#16 -1341#15 -1341#14 1343#0 598#1"/>
    </vehicle>
    <vehicle id="evehicle_3_50" type="evehicle" depart="20084.00" departLane="best">
        <route edges="1385 1387#1 1386#1 926#0 926#1 1578 223#0 223#1 223#2 223#3 223#4 223#5 223#6 223#7 223#8 -927#3 -927#2 -927#1 -927#0 -816#1 -816#0 298#0 298#1 298#2 856#0 856#1 856#2 316#1 201 211#3 17 15#0 15#1 15#2 15#3 15#4 15#5 737#0 737#2 878#3 878#4 695 734#0 734#1 734#2 734#3 734#4 732#0 732#1 732#2 732#3"/>
    </vehicle>
    <vehicle id="evehicle_3_423" type="evehicle" depart="20104.00" departLane="best">
        <route edges="-1269#0 911#1 456 -913 -1422 -1285#2 -1282#2 -1282#1 -1282#0 -1287#1 -1287#0 851#3 851#0 -468#6 -468#5 -468#3 -468#2 -468#1 -468#0 1300#1 1408#0 1408#1 1408#2 1408#3 1408#4 1408#5 1408#6 1408#7 497#1 243 494#0 494#1 494#2 494#3 494#4 351#2 351#3 351#4 -350 -519#2 -519#1 -519#0 -582#10 -582#9 -582#8 -582#7 -582#6 -582#5 -582#4 -582#3 -582#2 -582#1 618#0 618#1 -691#5 -691#4 -691#3 -691#2 -691#0 726#0 726#1 726#2 857#2 857#3 736 879#1 721#0 721#1 721#2"/>
    </vehicle>
    <vehicle id="evehicle_2_54" type="evehicle" depart="20229.00" departLane="best">
        <route edges="911#1 456 -913 -1422 -1285#2 -1282#2 -1282#1 -1282#0 -1287#1 -1287#0 851#3 851#0 -468#6 -468#5 -468#3 -468#2 -468#1 -468#0 1300#1 1408#0 1408#1 1408#2 1408#3 1408#4 1408#5 1408#6 1408#7 497#1 243 494#0 494#1 242"/>
    </vehicle>
    <vehicle id="evehicle_2_339" type="evehicle" depart="20235.00" departLane="best">
        <route edges="834 835 -1396#1 -1396#0 223#4 223#5 223#6 223#7 223#8 223#9 223#10 295#1 295#2 818#0 818#1 908 730#0 730#1 730#2 730#3 730#4 730#5 730#6 730#7 730#8 730#9 730#10 730#11 675 701#1 701#2 888#0 -743#1"/>
    </vehicle>
    <vehicle id="evehicle_1_229" type="evehicle" depart="20295.00" departLane="best">
        <route edges="-856#2 -856#1 -856#0 298#3 816#0 816#1 816#2 -787#4 -787#3 -787#2 -787#1 -787#0 1484#3 1484#0 864#0 864#1 864#2 730#11 675 735 863#2 617#0 617#1 617#2 617#3 617#4 617#5 619 620 582#1 582#2 582#3 582#4 582#5 582#6 582#7 582#8 582#9 582#10 582#11 519#1 519#2 519#3 351#1 -494#4 -494#3 -494#2 -502#2 -502#1 -502#0 -1308#4 -1308#3"/>
    </vehicle>
    <vehicle id="evehicle_2_470" type="evehicle" depart="20299.00" departLane="best">
        <route edges="1407#8 1407#9 1407#11 223#3 223#4 223#5 223#6 223#7 223#8 -927#3 -927#2 -927#1 -927#0 816#2 -787#4 -787#3 -787#2 -787#1 -787#0 1484#3 1484#0 1484#1 1484#2 787#0 787#1 787#2 787#3 787#4"/>
    </vehicle>
    <vehicle id="evehicle_3_33" type="evehicle" depart="20307.00" departLane="best">
        <route edges="-1421 -1264 -1269#0 911#1 456 -913 -1422 -1285#2 -1282#2 -1282#1 -1282#0 -1287#1 -1287#0 851#3 851#0 -468#6 -468#5 -468#3 -468#2 -468#1 -468#0 1300#1 1408#0 1408#1 1408#2 1408#3 1408#4 1408#5 1408#6 1408#7 497#1 243 494#0 494#1 494#2 494#3 494#4 351#2 351#3 351#4 -350 -519#2 -519#1 -519#0 -582#10 -582#9 -582#8 -582#7 -582#6 -582#5 -582#4 -582#3 -582#2 -582#1 618#0 618#1 -691#5 -691#4 -691#3 -691#2 -691#0 726#0 726#1 726#2 857#2 857#3 736 879#1 879#2 879#3 879#4 879#5 879#6 879#7 879#8 879#9 879#11 878#1 878#2 878#3 878#4 695 734#0 734#1 734#2"/>
    </vehicle>
    <vehicle id="evehicle_2_514" type="evehicle" depart="20317.00" departLane="best">
        <route edges="1408#4 1408#5 1408#6 1408#7 97 -1306#2 -1306#1 -1306#0 1303#0 1303#1 1303#2 355#0 355#1 355#2 360#1 360#2 360#3 360#4 -240#1 361 359#1"/>
    </vehicle>
    <vehicle id="evehicle_1_177" type="evehicle" depart="20379.00" departLane="best">
        <route edges="81 -185 710 184 716 183 677 182 179 569#1 569#2 569#3 569#4 585#3 1481 593#0 593#1 593#2 593#3 593#4 583#0 583#1 583#2 582#4 582#5 582#6 582#7 582#8 582#9 582#10 582#11 519#1 519#2 524#0 531 520#2 520#3 520#4 520#5 520#6"/>
    </vehicle>
    <vehicle id="evehicle_2_345" type="evehicle" depart="20385.00" departLane="best">
        <route edges="-855#1 -855#0 884#0 884#1 -529#1 -529#0 351#3 351#4 -350 -519#2 -519#1 -519#0 -582#10 -582#9 -582#8 -582#7 -582#6 -582#5 -582#4 -582#3 -582#2 -582#1 618#0 618#1 -691#5 -691#4 -691#3 -691#2 -691#0 726#0 726#1 726#2 857#2 857#3 736 879#1 721#0 721#1 699#0 714 -700#0 -721#2"/>
    </vehicle>
    <vehicle id="evehicle_1_221" type="evehicle" depart="20462.00" departLane="best">
        <route edges="888#5 -711#1 740#0 740#1 15#7 -17 211#4 202 205#3 -197 879#5 879#6 879#7 879#8 879#9 -741#1 -741#0 -1480#3 -1480#2 -1480#1 -1480#0 -888#1 -888#0 863#0 863#1 863#2 617#0 683#0"/>
    </vehicle>
    <vehicle id="evehicle_2_475" type="evehicle" depart="20474.00" departLane="best">
        <route edges="-927#0 -816#1 -816#0 298#0 298#1 -929#7 -929#6 -929#5 -929#4 -929#3 -929#2 -929#1 -929#0 -1404#9 -1404#8 -1404#7 -1404#6 -1404#5 -1404#3 -1404#2 -1404#1 812#1 812#2 902#0 902#1 902#2 902#3 -817#1 -804#2 -1490"/>
    </vehicle>
    <vehicle id="evehicle_2_35" type="evehicle" depart="20509.00" departLane="best">
        <route edges="-829#0 930#0 930#1 829#0 829#1 829#2 829#3 829#4 829#5 829#6 829#7 829#8 902#1 902#2 902#3 902#4 893 -812#1 -1404#0 315 162 316#0 316#1 173 435 223#8 223#9 223#10 295#1 295#2 818#0 818#1 908 730#0 730#1 813 -730#0"/>
    </vehicle>
    <vehicle id="evehicle_1_289" type="evehicle" depart="20627.00" departLane="best">
        <route edges="-788 -854 -408 -783 806 -778 -779 -777 692 733#0 733#1 733#2 733#3 878#4 878#0 878#1 878#2 -737#2 -737#0 15#6 15#7 -17 211#4 202 205#3 -197 879#5 879#6 879#7 879#8 879#9 -741#1 -741#0 -1480#3 -1480#2 -1480#1 -1480#0 888#2 888#3 888#4 888#5 907#0 907#1 748#0 748#1 748#2 748#3 739#0 739#1 739#2 739#3 708#0 708#1 -748#0 -907#1 -907#0 -888#5"/>
    </vehicle>
    <vehicle id="evehicle_1_332" type="evehicle" depart="20642.00" departLane="best">
        <route edges="519#3 351#1 351#2 351#3 351#4 -350 -519#2 -519#1 -519#0 -582#10 -582#9 -582#8 -582#7 -582#6 -582#5 -582#4 -582#3 -582#2 -582#1 618#0 618#1 -691#5 -691#4 -691#3 -691#2 -691#0 726#0 -720"/>
        <stop parkingArea="152480" duration="43200.00"/>
    </vehicle>
    <vehicle id="evehicle_3_163" type="evehicle" depart="20649.00" departLane="best">
        <route edges="820 1405#1 194 1263 195 -1404#27 -1404#26 -1404#25 -1404#24 -1404#23 -1404#21 -1404#20 -1404#19 -1404#18 -1404#17 -1404#16 -1404#13 -1404#12 -1404#11 -1404#10 -1404#9 -1404#8 -1404#7 -1404#6 -1404#5 -1404#3 -1404#2 -1404#1 -1404#0 315 162 316#0 316#1 201 211#3 17 15#0 15#1 15#2 15#3 15#4 15#5 737#0 737#2 878#3 -733#3 -733#2 -733#1 -733#0 -692 679 676 -690 689 688"/>
    </vehicle>
    <vehicle id="evehicle_1_111" type="evehicle" depart="20659.00" departLane="best">
        <route edges="564#1 564#2 -593#5 583#0 583#1 583#2 582#4 582#5 582#6 582#7 582#8 582#9 582#10 582#11 519#1 519#2 519#3 351#1 -494#4 -494#3 -494#2 -494#1 -242 494#2 494#3"/>
    </vehicle>
    <vehicle id="evehicle_3_69" type="evehicle" depart="20687.00" departLane="best">
        <route edges="976#0 974 1380#2 1379#1 1379#2 1379#3 1379#4 1379#5 1379#6 1379#7 1361#1 650#0 -652#2 -652#1 -652#0 1319#0 1319#1 1494#0 1494#1 1494#2 1320 1315#1 1315#2 -542#1 -542#0 -1312#5 -1312#4 -1312#3 -1312#2 -1312#1 -1312#0 -1311#0 -1313#0 -1250#5 -1250#4 -1250#3 -1250#2 -1250#1 -1250#0 850#3 -1327#1 -1327#0 1341#0 1341#1 1341#3 1341#4 1341#5 1341#6 1341#7 1341#8 1341#9"/>
    </vehicle>
    <vehicle id="evehicle_3_420" type="evehicle" depart="20729.00" departLane="best">
        <route edges="666#0 666#1 666#2 666#3 666#4 666#5 666#7 666#8 -310#0 309 341#1 -1363#3 -1363#2 -1363#1 -1363#0 1379#6 1379#7 1361#1 650#0 -652#2 -652#1 -652#0 1319#0 1319#1 1494#0 1494#1 1494#2 1320 1315#1 1315#2 -542#1 -542#0 -1312#5 -1312#4 -1312#3 -1312#2 -1312#1 -1312#0 1311#1 1311#2 1311#3 1311#4 1297#0 1297#1 199#0 199#1 -1300#4 -1300#3 -1300#2 1408#0 1408#1 1408#2 1408#3 1408#4 1408#5 1408#6 1408#7 497#1 497#2 100 239#1 103 -1408#7"/>
        <stop parkingArea="152433" duration="43200.00"/>
    </vehicle>
    <vehicle id="evehicle_2_231" type="evehicle" depart="20732.00" departLane="best">
        <route edges="-623#0 -622#1 -622#0 -920 -918 -1341#16 -1341#15 -1341#14 -1341#13 -1341#12 -1341#11 -1341#10 -1341#9 -1341#8 -1341#7 -1341#6 -1341#5 -1341#4 -1341#3 -1341#1 -1341#0 1327#0 1327#1 850#4 850#0 -1302#14 -1302#13 -1302#12 -1302#11 -1302#10 -1302#9 -1302#8 -849 1302#7 1302#8 1302#9 1302#10 1302#11 1302#12"/>
    </vehicle>
    <vehicle id="evehicle_3_286" type="evehicle" depart="20773.00" departLane="best">
        <route edges="1270#0 1270#1 1270#2 1270#3 -1275#1 -1275#0 130 1279 1288#0 1288#1 1247#1 1247#2 1247#3 1247#4 1300#1 1408#0 1408#1 1408#2 1408#3 1408#4 1408#5 1408#6 1408#7 497#1 243 494#0 494#1 494#2 494#3 494#4 351#2 351#3 351#4 -350 -519#2 -519#1 -519#0 -582#10 -582#9 -582#8 -582#7 -582#6 -582#5 -582#4 -582#3 -582#2 -582#1 618#0 618#1 -858#5 -858#4 -858#2 -858#1 -858#0"/>
    </vehicle>
    <vehicle id="evehicle_1_353" type="evehicle" depart="20777.00" departLane="best">
        <route edges="283 732#1 732#2 732#3 747#0 747#1 747#2 197 205#0 163 320"/>
    </vehicle>
    <vehicle id="evehicle_2_3" type="evehicle" depart="20778.00" departLane="best">
        <route edges="-300#1 -300#0 223#3 223#4 223#5 223#6 223#7 223#8 -927#3 -927#2 -927#1 -927#0 -816#1 -816#0 298#0 298#1 298#2 856#0 856#1 856#2 316#1 201 211#3 211#4 202 205#3 205#0 163 320 81"/>
    </vehicle>
    <vehicle id="evehicle_1_239" type="evehicle" depart="20782.00" departLane="best">
        <route edges="917#8 -1327#0 1341#0 1341#1 1341#3 1341#4 1341#5 1341#6 1341#7 1341#8 1341#9 1341#10 1341#11 1341#12 1341#13 1341#14 1341#15 1341#16 1488 -1486#2 -1486#1 -1486#0 1332#1 1332#2 1332#3 1332#4 1332#5 1332#6 1332#7 1332#8 1373#0 1373#1 1369#0 1369#1 1369#2 1369#3 -1368#0 1256#0 1256#1 1256#2"/>
    </vehicle>
    <vehicle id="evehicle_1_130" type="evehicle" depart="20861.00" departLane="best">
        <route edges="746#1 746#2 752#5 752#6 730#3 730#4 730#5 730#6 730#7 730#8 730#9 730#10 730#11 675 735 863#2 617#0 617#1 617#2 617#3 617#4 617#5 619 621#0 621#2 594 447 561#0 561#1 561#2 1324#0 1324#1 1324#2 1324#3 1324#4"/>
    </vehicle>
    <vehicle id="evehicle_2_356" type="evehicle" depart="20929.00" departLane="best">
        <route edges="-1362 -1360 -661 -825#0 1361#1 650#0 -652#2 -652#1 -652#0 1319#0 1319#1 1494#0 1494#1 1494#2 1320 1315#1 1315#2 -542#1 -542#0 -1312#5 -1312#4 -1312#3 -1312#2 -1312#1 -1312#0 -1311#0 -1313#0 -1250#5 -1250#4 -1252#11 -1252#10 -1252#9 -1252#8 -1252#7 -1252#6 -1252#5 -1252#4 -1252#2 -1252#1 -1252#0 -1343#1 -1343#0 1341#14 1341#15 1341#16 918 920 622#0 622#1 622#2 622#3 617#3 617#4 617#5 619 620 572#0 572#1 572#2 -593#5 -593#4 -593#3 -593#2"/>
    </vehicle>
    <vehicle id="evehicle_3_220" type="evehicle" depart="21003.00" departLane="best">
        <route edges="1265 -1264 -1269#0 911#1 456 -913 -1422 -1285#2 -1282#2 -1282#1 -1282#0 -1287#1 -1287#0 851#3 851#0 -468#6 -468#5 -468#3 -468#2 -468#1 -468#0 1300#1 1408#0 1408#1 1408#2 1408#3 1408#4 1408#5 1408#6 1408#7 497#1 243 494#0 494#1 494#2 494#3 494#4 351#2 351#3 351#4 -350 -519#2 -519#1 -519#0 -582#10 -582#9 -582#8 -582#7 -582#6 -582#5 -582#4 -582#3 -582#2 -582#1 618#0 618#1 -691#5 -691#4 -691#3 -691#2 -691#0 726#0 726#1"/>
    </vehicle>
    <vehicle id="evehicle_1_443" type="evehicle" depart="21040.00" departLane="best">
        <route edges="-784 866 782 -719 -715 -690 689 688 -679 692 733#0 733#1 733#2 733#3 878#4 878#0 878#1 878#2 -737#2 -737#0 15#6 15#7 -17 211#4 211#1 211#2 -201 173 435 223#8 223#9 223#10 295#1 295#2 295#3 -808#1 -808#0 192 -809#1 -809#0 752#0 752#1 -287 -752#2"/>
    </vehicle>
    <vehicle id="evehicle_2_588" type="evehicle" depart="21197.00" departLane="best">
        <route edges="295#2 818#0 818#1 213 299 315 162 316#0 316#1 201 211#3 211#4 202 205#3 -197 879#5 879#6 879#7 879#8 879#9 -741#1 -741#0"/>
    </vehicle>
    <vehicle id="evehicle_2_210" type="evehicle" depart="21201.00" departLane="best">
        <route edges="-1355#10 -1355#9 899#0 899#1 1355#10 1355#11 -825#5 -825#3 -825#2 -825#1 -825#0 1361#1 650#0 -652#2 -652#1 -652#0 1319#0 1319#1 1494#0 1494#1 1494#2 1320 1315#1 1315#2 -542#1 -542#0 -1312#5 -1312#4 -1312#3 -1312#2 -1312#1 -1312#0 1311#1 1311#2 1311#3 1311#4 1297#0 1297#1 199#0 199#1 -1300#4 -1300#3 -1300#2 1408#0 1408#1 1408#2 1408#3 1408#4 1408#5 1408#6 1408#7 97 -1306#2 -1306#1 -1306#0 1303#0 1303#1 1303#2 355#0 355#1 355#2 360#1 360#2 360#3 360#4 -240#1 361 359#1"/>
    </vehicle>
    <vehicle id="evehicle_2_494" type="evehicle" depart="21208.00" departLane="best">
        <route edges="1308#2 1308#3 1308#4 1308#5 502#1 502#2 494#2 494#3 494#4 351#2 351#3 520#0 -524#1 531 520#2 520#3 520#4 520#5 520#6 520#7 520#8 520#9 416#1 247#4 247#1 -562#6 -562#5 -562#4 -562#3 -562#2 -562#1 -562#0 561#1 561#2 1324#0 1324#1 1324#2 1324#3"/>
    </vehicle>
    <vehicle id="evehicle_1_119" type="evehicle" depart="21218.00" departLane="best">
        <route edges="1480#1 1480#2 -712#1 -712#0 707#1 -888#0 863#0 863#1 863#2 617#0 617#1 617#2 617#3 617#4 617#5 619 620 582#1 582#2 582#3 582#4 582#5 582#6 582#7 582#8 582#9 582#10 582#11 519#1 519#2 519#3 351#1 -494#4 -494#3 -494#2 -494#1 -494#0 488 100 239#1 103 497#1 243 494#0"/>
    </vehicle>
    <vehicle id="evehicle_2_145" type="evehicle" depart="21220.00" departLane="best">
        <route edges="1312#6 542#1 -1315#2 -1315#1 -1320 1494#3 1494#0 1494#1 1248#0 1248#1 1248#2 1248#3 1248#4 1248#5 1248#6 1248#7 1248#8 1248#9 1248#10 1248#11 1248#12 -1256#7 -1256#6 -1256#5 -1256#4 -1256#3 -1256#2 -1256#1 -1256#0 -1372#0 -1369#3 -1369#2 -1369#1 1371 728#1 728#2 728#3 728#4 728#5 730#8 730#9"/>
    </vehicle>
    <vehicle id="evehicle_3_87" type="evehicle" depart="21228.00" departLane="best">
        <route edges="-1384#4 -1384#3 -1384#2 -1384#1 -1384#0 1379#5 1379#6 1379#7 1361#1 650#0 -652#2 -652#1 -652#0 1319#0 1319#1 1494#0 1494#1 1494#2 1320 1315#1 1315#2 -542#1 -542#0 -1312#5 -1312#4 -1312#3 -1312#2 -1312#1 -1312#0 -1311#0 -1313#0 -1250#5 -1250#4 -1250#3 -1250#2 -1250#1 -1250#0 850#3 -1327#1 -1327#0 563#0 563#1 563#2 563#3 563#4 563#5 1334#0 1334#1 1334#2 595 594 447 561#0 562#0 562#1 562#2 562#3 562#4 562#5 562#6 247#2 247#3 -416#1 -520#9 -520#8 -520#7 -855#4 -855#3 -855#2 -855#1 -855#0 860#0 860#1"/>
    </vehicle>
    <vehicle id="evehicle_3_113" type="evehicle" depart="21228.00" departLane="best">
        <route edges="-1269#0 911#1 456 -913 -1422 -1285#2 -1282#2 -1282#1 -1282#0 -1287#1 -1287#0 851#3 851#0 -468#6 -468#5 -468#3 -468#2 -468#1 -468#0 1300#1 1408#0 1408#1 1408#2 1408#3 1408#4 1408#5 1408#6 1408#7 497#1 243 494#0 494#1 494#2 494#3 494#4 351#2 351#3 351#4 -350 -519#2 -519#1 -519#0 -582#10 -582#9 -582#8 -582#7 -582#6 -582#5 -582#4 630#1 630#2 630#3 -617#5 -617#4 -617#3 696"/>
        <stop parkingArea="152475" duration="43200.00"/>
    </vehicle>
    <vehicle id="evehicle_3_93" type="evehicle" depart="21258.00" departLane="best">
        <route edges="-1264 -1269#0 911#1 456 -913 -1422 -1285#2 -1282#2 -1282#1 -1282#0 -1287#1 -1287#0 851#3 851#0 -468#6 -468#5 -468#3 -468#2 -468#1 -468#0 1300#1 1408#0 1408#1 1408#2 1408#3 1408#4 1408#5 1408#6 1408#7 497#1 243 494#0 494#1 494#2 494#3 494#4 351#2 351#3 351#4 -350 -519#2 -519#1 -519#0 -582#10 -582#9 -582#8 -582#7 -582#6 -582#5 -582#4 -582#3 -582#2 -582#1 618#0 618#1 -691#5 -691#4 -691#3 -691#2 -691#0 726#0 726#1 726#2 857#2 857#3"/>
    </vehicle>
    <vehicle id="evehicle_2_290" type="evehicle" depart="21271.00" departLane="best">
        <route edges="1332#3 1332#4 1332#5 1332#6 1332#7 1332#8 924#1 925 729 717 698 1484#2 1484#3 743#0 743#1 888#1 1480#0 1480#1 1480#2 1480#3 741#0 741#1 879#11 878#1 878#2 -737#2 -737#0 15#6 15#7 15#0 16 887 -162 -315 -877 812#1 812#2 902#0 902#1 902#2 -903 790#0 790#1 790#2 293#0 293#1 -293#4 -293#3 -293#2"/>
    </vehicle>
    <vehicle id="evehicle_1_4" type="evehicle" depart="21303.00" departLane="best">
        <route edges="-592#1 -592#0 593#4 583#0 583#1 583#2 630#1 621#2 594 447 561#0 562#0 562#1 562#2 562#3 562#4 562#5 562#6 247#2 247#3 -416#1 -520#9 -520#8 -520#7 -520#6 -520#5 -520#4 -520#3 -520#2"/>
    </vehicle>
    <vehicle id="evehicle_1_324" type="evehicle" depart="21304.00" departLane="best">
        <route edges="787#0 787#1 787#2 787#3 -748#6 -748#5 -748#4 -748#3 -748#2 -748#1 -748#0 -907#1 -907#0 -888#5 -888#4 -888#3 -888#2 -888#1 -888#0 863#0 863#1 863#2 617#0 617#1 617#2 617#3 617#4 394#0 394#1 394#2"/>
    </vehicle>
    <vehicle id="evehicle_3_446" type="evehicle" depart="21327.00" departLane="best">
        <route edges="754 926#1 1578 223#0 223#1 223#2 223#3 223#4 223#5 223#6 223#7 223#8 223#9 223#10 295#1 295#2 818#0 818#1 213 299 -877 812#1 812#2 902#0 902#1 902#2 902#3 -817#1 -804#2 -804#1 -804#0 815#0 1491#3 1491#4 -789"/>
    </vehicle>
    <vehicle id="evehicle_2_375" type="evehicle" depart="21348.00" departLane="best">
        <route edges="563#4 563#5 1334#0 1334#1 1334#2 859 600 630#3 -617#5 -617#4 -617#3 -617#2 -617#1 -617#0 111 862#0 862#1 -730#11 -730#10 -730#9 -730#8 -730#7 -730#6 -730#5 -730#4 -730#3 -752#6 -752#5 -752#4 -752#3 -752#2 -287 752#3"/>
    </vehicle>
    <vehicle id="evehicle_1_2" type="evehicle" depart="21351.00" departLane="best">
        <route edges="-728#3 -728#2 -728#1 -728#0 -1369#0 -1373#1 -1373#0 924#1 925 729 717 698 1484#2 1484#3 743#0 743#1 888#1 1480#0 1480#1 1480#2 1480#3 741#0 741#1 879#11 878#1 878#2 -737#2 -737#0 15#6 15#7 15#0 15#1 15#2 -773 191 -815#2 -815#1 1491#3 1491#4 -789"/>
    </vehicle>
    <vehicle id="evehicle_3_383" type="evehicle" depart="21382.00" departLane="best">