<?xml version="1.0" encoding="UTF-8"?>
<!-- generated on 2018-09-17 13:590.414231 by $Id$
  options: -n /home/drone/EURECOM/Projects/GITHUB/MoSTScenario/scenario/in/most.net.xml -b 14400 -e 50400 -p 1200 <doubleminus>random-begin <doubleminus>seed 42 <doubleminus>no-vtypes <doubleminus>ptstops /home/drone/EURECOM/Projects/GITHUB/MoSTScenario/scenario/in/add/most.busstops.add.xml <doubleminus>ptlines pt/most.buslines.add.xml -o out/most.buses.flows.xml
-->
<routes xmlns:xsi="http://www.w3.org/2001/XMLSchema-instance" xsi:noNamespaceSchemaLocation="http://sumo.dlr.de/xsd/routes_file.xsd">
    <route id="bus_M2:France" edges="-152749 -152912#0 -153438#0 -153456#6 -153456#5 -153456#4 -153456#3 -153456#2 -153456#1 -153456#0 -153457#1 153462 -153464#0 -152259 153465" >
        <stop busStop="131164" duration="30.00" until="37.0"/> <!-- La Turbie Marie -->
        <stop busStop="131168" duration="30.00" until="405.0"/> <!-- 131168 -->
    </route>
    <route id="bus_M4:Train" edges="153481#13 153481#14 153481#15 153481#16 153481#17 153481#18 153481#19 153481#20 152923#0 -152926 -153015#0 -152924#2" >
        <stop busStop="131180" duration="30.00" until="61.0"/> <!-- L'Eglise -->
        <stop busStop="131178" duration="30.00" until="135.0"/> <!-- La Source -->
        <stop busStop="131035" duration="30.00" until="224.0"/> <!-- Les Cigognes -->
        <stop busStop="131195" duration="30.00" until="281.0"/> <!-- Bois Joli -->
    </route>
    <route id="bus_M4:HotelVille" edges="152924#2 153015#0 152926 -152923#0 -153481#20 -153481#19 -153481#18 -153481#17 -153481#16 -153481#15 -153481#14 -153481#13" >
        <stop busStop="131027" duration="30.00" until="44.0"/> <!-- Bois Joli -->
        <stop busStop="131196" duration="30.00" until="103.0"/> <!-- Les Cigognes -->
        <stop busStop="131177" duration="30.00" until="182.0"/> <!-- Guillaume Apollinaire -->
        <stop busStop="131179" duration="30.00" until="257.0"/> <!-- L'Eglise -->
        <stop busStop="131181" duration="30.00" until="323.0"/> <!-- Hotel de Ville -->
    </route>
    <route id="bus_M1:France" edges="152931 152260 153482#0 -152907 -153463#0 -153464#0 -152259 153465" >
        <stop busStop="131172" duration="30.00" until="74.0"/> <!-- Parking Saint-Laurent d'Eze -->
        <stop busStop="131031" duration="30.00" until="241.0"/> <!-- Chapelle de Saint-Laurent -->
        <stop busStop="131168" duration="30.00" until="614.0"/> <!-- 131168 -->
    </route>
    <route id="bus_M1:Eze" edges="-153465 152259 153464#0 153464#1 152907 -153482#0 -152260 -152931" >
        <stop busStop="131167" duration="30.00" until="41.0"/> <!-- 131167 -->
        <stop busStop="131162" duration="30.00" until="433.0"/> <!-- Chapelle de Saint-Laurent -->
        <stop busStop="131171" duration="30.00" until="586.0"/> <!-- Parking Saint-Laurent d'Eze -->
    </route>
    <route id="bus_M2:Turbie" edges="-153465 152259 153464#0 -153462 153457#1 153457#2 153456#1 153456#2 153456#3 153456#4 153456#5 153456#6 153456#7 152912#0" >
        <stop busStop="131167" duration="30.00" until="41.0"/> <!-- 131167 -->
        <stop busStop="131030" duration="30.00" until="402.0"/> <!-- La Turbie Marie -->
    </route>
    <route id="bus_M5:PontUnion" edges="152998#0 152998#1 152242 153362#0 153362#1 153362#2 -152962 -152286 152558" >
        <stop busStop="131158" duration="30.00" until="65.0"/> <!-- Ramingao -->
        <stop busStop="131155" duration="30.00" until="143.0"/> <!-- 2e Escalier -->
        <stop busStop="131153" duration="30.00" until="203.0"/> <!-- 1er Escalier -->
        <stop busStop="131151" duration="30.00" until="285.0"/> <!-- Massolin -->
        <stop busStop="131078" duration="30.00" until="386.0"/> <!-- Cypris -->
        <stop busStop="131077" duration="30.00" until="454.0"/> <!-- Orchidees -->
        <stop busStop="131075" duration="30.00" until="593.0"/> <!-- Victoria -->
        <stop busStop="131194" duration="30.00" until="678.0"/> <!-- Pont de l'Union -->
    </route>
    <route id="bus_M5:Ramingao" edges="153661 152286 -152559 -153362#2 -153362#1 -153362#0 -152242 -152998#1 -152998#0" >
        <stop busStop="131140" duration="30.00" until="43.0"/> <!-- Pont de l'Union -->
        <stop busStop="131198" duration="30.00" until="135.0"/> <!-- 131198 -->
        <stop busStop="131076" duration="30.00" until="275.0"/> <!-- Le Cirta -->
        <stop busStop="131074" duration="30.00" until="338.0"/> <!-- Mairie -->
        <stop busStop="131152" duration="30.00" until="488.0"/> <!-- 1er Escalier -->
        <stop busStop="131154" duration="30.00" until="549.0"/> <!-- 2e Escalier -->
        <stop busStop="131159" duration="30.00" until="631.0"/> <!-- Ramingao -->
    </route>
    <route id="bus_M3:Hospital" edges="152912#0 152912#1 152912#2 152912#3 152912#5 152912#6 152912#7 152912#8 152413#1 152413#2 152413#3 152333#0 152333#1 152333#2 152333#3 152333#4 152333#5 152333#6 152333#7 152169 -153011#3 -153011#2 -153011#1 -153011#0 -152903#1 -152903#0 152405#0 152405#1 152405#2 152405#3 152903#0 152903#1" >
        <stop busStop="131030" duration="30.00" until="38.0"/> <!-- La Turbie Marie -->
        <stop busStop="131038" duration="30.00" until="117.0"/> <!-- 131038 -->
        <stop busStop="131020" duration="30.00" until="231.0"/> <!-- 131020 -->
        <stop busStop="131019" duration="30.00" until="556.0"/> <!-- 131019 -->
        <stop busStop="131037" duration="30.00" until="657.0"/> <!-- 131037 -->
        <stop busStop="131029" duration="30.00" until="734.0"/> <!-- 131029 -->
        <stop busStop="131055" duration="30.00" until="899.0"/> <!-- Hopital -->
    </route>
    <route id="bus_1:Monaco" edges="152352 152586#1 152586#2 152586#3 152586#4 152458#2 152458#3 152458#4 -152457 -152226 -152172 -152609#2 -152609#1 -152609#0 -152671#10 -152671#9 -152657 -152677 -152663 -152655 -152954 -152665 -152671#3 -152671#2 -152671#1 152706#0 152706#1 -152779#5 -152779#4 -152779#3 -152779#2 -152676#2 -152676#1 152692#0 -152953#2 -152953#1 -152953#0 152676#2 -152779#0 152814#0 152814#1 152814#2 152943#2 152943#3 152824 152965#1 152965#2 152965#3 152965#4 152965#5 152965#6 152965#7 152965#8 -153278#2 -153278#1 -152138#1 -152138#0 152806 152822#1 152822#2 152822#3 152822#4 152820#0 152820#1 152820#2 152820#3 152835#0 152835#1 152809#1 152809#2 -152770#1 -152770#0 152965#7 152965#8 152965#10 152964#2 152964#3 152964#4 -152821#3 -152821#2 -152821#1 -152821#0 -152780 152767 -152776 -152777" >
        <stop busStop="131166" duration="30.00" until="41.0"/> <!-- Saint-Roman (Bus 1) -->
        <stop busStop="131133" duration="30.00" until="114.0"/> <!-- Carmes -->
        <stop busStop="131124" duration="30.00" until="196.0"/> <!-- La Rousse -->
        <stop busStop="131128" duration="30.00" until="254.0"/> <!-- Place des Moulins -->
        <stop busStop="131134" duration="30.00" until="325.0"/> <!-- Saint-Charles -->
        <stop busStop="131062" duration="30.00" until="423.0"/> <!-- Monte-Carlo -->
        <stop busStop="131063" duration="30.00" until="544.0"/> <!-- Square Beaumarchais -->
        <stop busStop="131132" duration="30.00" until="612.0"/> <!-- Ostende -->
        <stop busStop="131060" duration="30.00" until="684.0"/> <!-- Place Sainte-Devote (Gare) -->
        <stop busStop="131122" duration="30.00" until="736.0"/> <!-- Princesse Florestine -->
        <stop busStop="131118" duration="30.00" until="832.0"/> <!-- Place d'Armes (Port) -->
        <stop busStop="131116" duration="30.00" until="1062.0"/> <!-- Monaco Ville (le Rocher) -->
    </route>
    <route id="bus_2:Monaco" edges="152900 152818#1 152818#2 152818#3 152818#4 152818#5 152818#6 152818#7 152818#8 152818#9 152818#10 152818#11 152763 152233 152789#0 152823 152949#2 152237 152705#0 152705#1 152705#2 152705#3 152705#4 152705#5 152707 152708 152706#0 152706#1 -152779#5 -152779#4 -152779#3 -152779#2 -152676#2 -152676#1 152692#0 -152953#2 -152953#1 -152953#0 152676#2 -152779#0 152814#0 152814#1 152814#2 152943#2 152943#3 152824 152965#1 152965#2 152965#3 152965#4 152965#5 152965#6 152965#7 152965#8 152965#10 152964#2 152964#3 152964#4 -152821#3 -152821#2 -152821#1 -152821#0 -152780 152767 -152776 -152777" >
        <stop busStop="131137" duration="30.00" until="38.0"/> <!-- Jardin Exotique -->
        <stop busStop="131048" duration="30.00" until="125.0"/> <!-- Villa Paloma -->
        <stop busStop="131138" duration="30.00" until="164.0"/> <!-- Rotondes -->
        <stop busStop="131069" duration="30.00" until="230.0"/> <!-- Moneghetti -->
        <stop busStop="131112" duration="30.00" until="288.0"/> <!-- Belgique -->
        <stop busStop="131079" duration="30.00" until="370.0"/> <!-- Pont Sainte-Devote -->
        <stop busStop="131201" duration="30.00" until="433.0"/> <!-- Roqueville -->
        <stop busStop="131062" duration="30.00" until="511.0"/> <!-- Monte-Carlo -->
        <stop busStop="131063" duration="30.00" until="631.0"/> <!-- Square Beaumarchais -->
        <stop busStop="131132" duration="30.00" until="698.0"/> <!-- Ostende -->
        <stop busStop="131060" duration="30.00" until="770.0"/> <!-- Place Sainte-Devote (Gare) -->
        <stop busStop="131122" duration="30.00" until="820.0"/> <!-- Princesse Florestine -->
        <stop busStop="131084" duration="30.00" until="913.0"/> <!-- Place d'Armes (vers Monaco Ville) -->
        <stop busStop="131116" duration="30.00" until="1015.0"/> <!-- Monaco Ville (le Rocher) -->
    </route>
    <route id="bus_1:SaintRoman" edges="-152777 152778 -152764 -152767 152780 152821#0 152821#1 152821#2 152821#3 152964#5 152964#1 152964#2 152964#3 -152825#2 -152825#1 -152825#0 152140#6 152140#7 -152142 152321#4 152312 152315#3 -152308 152965#5 152965#6 152965#7 152965#8 -153278#2 -153278#1 -152138#1 -152138#0 152806 152822#1 152822#2 152822#3 152822#4 152392 152390 152820#1 152820#2 152820#3 152820#4 152820#5 152943#0 152791#0 152791#1 152791#2 152766 152292 152666 152658#2 152658#3 152658#4 152674#3 152681#0 152681#1 152681#2 152681#3 152681#4 152681#5 -152661#2 -152661#1 -152661#0 152671#1 152671#2 152671#3 152671#4 152671#5 152671#6 152671#7 152671#8 152671#9 152671#10 152671#11 152609#1 152609#2 152172 152226 152457 152458#1 -152586#4 -152586#3 -152586#2 152352" >
        <stop busStop="131116" duration="30.00" until="39.0"/> <!-- Monaco Ville (le Rocher) -->
        <stop busStop="131118" duration="30.00" until="314.0"/> <!-- Place d'Armes (Port) -->
        <stop busStop="131044" duration="30.00" until="390.0"/> <!-- Princesse Stephanie -->
        <stop busStop="131092" duration="30.00" until="443.0"/> <!-- Stade Nautique -->
        <stop busStop="131093" duration="30.00" until="499.0"/> <!-- Princesse Antoinette -->
        <stop busStop="131094" duration="30.00" until="575.0"/> <!-- Kennedy -->
        <stop busStop="131095" duration="30.00" until="639.0"/> <!-- Auditorium Rainier III -->
        <stop busStop="131043" duration="30.00" until="725.0"/> <!-- Portier -->
        <stop busStop="131051" duration="30.00" until="840.0"/> <!-- Spelugues -->
        <stop busStop="131050" duration="30.00" until="903.0"/> <!-- Citronniers -->
        <stop busStop="131059" duration="30.00" until="956.0"/> <!-- Place du Casino -->
        <stop busStop="131057" duration="30.00" until="1072.0"/> <!-- Monte-Carlo (Tourisme) -->
        <stop busStop="131061" duration="30.00" until="1131.0"/> <!-- Saint-Charles -->
        <stop busStop="131129" duration="30.00" until="1196.0"/> <!-- Place des Moulins -->
        <stop busStop="131127" duration="30.00" until="1258.0"/> <!-- La Rousse -->
        <stop busStop="131125" duration="30.00" until="1325.0"/> <!-- Carmes -->
        <stop busStop="131166" duration="30.00" until="1394.0"/> <!-- Saint-Roman (Bus 1) -->
    </route>
    <route id="bus_2:Jardin" edges="-152777 152778 -152764 -152767 152780 152821#0 152821#1 152821#2 152821#3 152964#5 152964#1 152964#2 152964#3 -152825#2 -152825#1 -152825#0 152140#6 152140#7 -152142 152321#4 152312 152315#3 -152308 152965#5 152965#6 152965#7 152965#8 -153278#2 -153278#1 -152138#1 -152138#0 152806 152822#1 152822#2 152822#3 152822#4 152392 152390 152820#1 152820#2 152820#3 152820#4 152820#5 152943#0 152943#1 -152814#2 -152814#1 -152814#0 152779#0 152779#2 152779#3 152779#4 152779#5 -152706#1 -152706#0 152671#1 152671#2 152671#3 152718 152177#0 152177#1 -152705#5 -152705#4 -152705#3 -152705#2 -152705#1 -152705#0 152232 152948#0 152948#1 -152818#11 -152818#10 -152818#9 -152818#8 -152818#7 -152818#6 -152818#5 -152818#4 -152818#3 -152818#2 152900" >
        <stop busStop="131116" duration="30.00" until="39.0"/> <!-- Monaco Ville (le Rocher) -->
        <stop busStop="131118" duration="30.00" until="313.0"/> <!-- Place d'Armes (Port) -->
        <stop busStop="131044" duration="30.00" until="390.0"/> <!-- Princesse Stephanie -->
        <stop busStop="131092" duration="30.00" until="443.0"/> <!-- Stade Nautique -->
        <stop busStop="131093" duration="30.00" until="499.0"/> <!-- Princesse Antoinette -->
        <stop busStop="131096" duration="30.00" until="577.0"/> <!-- Ostende -->
        <stop busStop="131091" duration="30.00" until="638.0"/> <!-- Terrasses du Casino -->
        <stop busStop="131057" duration="30.00" until="733.0"/> <!-- Monte-Carlo (Tourisme) -->
        <stop busStop="131090" duration="30.00" until="834.0"/> <!-- Cremaillere -->
        <stop busStop="131097" duration="30.00" until="915.0"/> <!-- Roqueville -->
        <stop busStop="131047" duration="30.00" until="987.0"/> <!-- Pont Sainte-Devote -->
        <stop busStop="131119" duration="30.00" until="1050.0"/> <!-- Belgique -->
        <stop busStop="131098" duration="30.00" until="1106.0"/> <!-- Moneghetti -->
        <stop busStop="131135" duration="30.00" until="1171.0"/> <!-- Rotondes -->
        <stop busStop="131049" duration="30.00" until="1220.0"/> <!-- Villa Paloma -->
        <stop busStop="131137" duration="30.00" until="1291.0"/> <!-- Jardin Exotique -->
    </route>
    <route id="bus_5:Larvotto" edges="152903#1 152903#2 -152874#4 -152874#3 -152874#2 -152874#1 -152874#0 153557#3 153557#0 152950#0 152950#1 152950#2 152818#11 152763 152233 152789#0 152823 152949#2 152237 152705#0 152705#1 152705#2 152705#3 152705#4 152705#5 152707 152708 152671#1 152671#2 152671#3 -152672#2 -152672#1 -152672#0 -152681#4 -152681#3 -152681#2 -152681#1 -152681#0 152658#0 152658#1 152658#2 152538#0 152538#2 152538#3 152538#4 152538#5 152538#6 152538#7" >
        <stop busStop="131055" duration="30.00" until="54.0"/> <!-- Hopital -->
        <stop busStop="131105" duration="30.00" until="115.0"/> <!-- Observatoire -->
        <stop busStop="131200" duration="30.00" until="173.0"/> <!-- Parc Princesse Antoinette -->
        <stop busStop="131106" duration="30.00" until="233.0"/> <!-- Bosio -->
        <stop busStop="131123" duration="30.00" until="310.0"/> <!-- Belgique -->
        <stop busStop="131079" duration="30.00" until="396.0"/> <!-- Pont Sainte-Devote -->
        <stop busStop="131201" duration="30.00" until="458.0"/> <!-- Roqueville -->
        <stop busStop="131057" duration="30.00" until="582.0"/> <!-- Monte-Carlo (Tourisme) -->
        <stop busStop="131126" duration="30.00" until="659.0"/> <!-- Place du Casino -->
        <stop busStop="131087" duration="30.00" until="730.0"/> <!-- Spelugues -->
        <stop busStop="131043" duration="30.00" until="793.0"/> <!-- Portier -->
        <stop busStop="131108" duration="30.00" until="855.0"/> <!-- Grimaldi Forum/Villa Sauber -->
        <stop busStop="131131" duration="30.00" until="927.0"/> <!-- Plages -->
        <stop busStop="131109" duration="30.00" until="984.0"/> <!-- Sea Club -->
        <stop busStop="131083" duration="30.00" until="1038.0"/> <!-- Larvotto -->
    </route>
    <route id="bus_4:Fontvieille" edges="-152352 -152586#1 -152586#0 152580 152222 152349#1 152224 152219 153381 152224 152589#1 152353 152586#0 152586#1 152586#2 152586#3 152586#4 152458#2 152458#3 152458#4 -152457 -152226 -152172 -152609#2 -152609#1 -152609#0 -152671#10 -152671#9 -152657 -152677 -152663 -152655 -152954 -152665 152718 152177#0 152177#1 -152705#5 -152705#4 -152705#3 -152705#2 -152705#1 -152705#0 152232 152948#0 152797 152789#2 152170 152974#0 152974#1 152974#2 152974#3 -152799#1 152828#0 152828#1 152140#7 -152142 152321#4 152312 152315#3 -152308 152965#5 152965#6 152965#7 152965#8 -153278#2 -153278#1 -152138#1 -152138#0 152806 152822#1 152822#2 152822#3 152822#4 152392 152793#0 152793#1 152832 152801#1 -152801#1 -152832 -152793#1 -152793#0 152472 152299 153645 153644" >
        <stop busStop="131085" duration="30.00" until="37.0"/> <!-- Saint-Roman (Bus 4) -->
        <stop busStop="131081" duration="30.00" until="152.0"/> <!-- Varavilla -->
        <stop busStop="131163" duration="30.00" until="216.0"/> <!-- Saint-Roman -->
        <stop busStop="131133" duration="30.00" until="287.0"/> <!-- Carmes -->
        <stop busStop="131124" duration="30.00" until="369.0"/> <!-- La Rousse -->
        <stop busStop="131128" duration="30.00" until="426.0"/> <!-- Place des Moulins -->
        <stop busStop="131134" duration="30.00" until="497.0"/> <!-- Saint-Charles -->
        <stop busStop="131090" duration="30.00" until="576.0"/> <!-- Cremaillere -->
        <stop busStop="131097" duration="30.00" until="655.0"/> <!-- Roqueville -->
        <stop busStop="131047" duration="30.00" until="733.0"/> <!-- Pont Sainte-Devote -->
        <stop busStop="131099" duration="30.00" until="802.0"/> <!-- Louis Aureglia -->
        <stop busStop="131045" duration="30.00" until="866.0"/> <!-- Castelleretto -->
        <stop busStop="131046" duration="30.00" until="927.0"/> <!-- Honore II -->
        <stop busStop="131118" duration="30.00" until="1088.0"/> <!-- Place d'Armes (Port) -->
        <stop busStop="131121" duration="30.00" until="1155.0"/> <!-- Princesse Stephanie -->
        <stop busStop="131088" duration="30.00" until="1348.0"/> <!-- Fontvieille - Centre Commercial -->
    </route>
    <route id="bus_6:Fontvieille" edges="152538#7 152539#0 152539#1 152539#2 152539#3 152539#4 152539#6 152658#4 152674#3 152681#0 152681#1 152681#2 152681#3 152681#4 152681#5 152654#0 152692#0 152692#1 152692#2 152706#1 -152779#5 -152779#4 -152779#3 -152779#2 -152676#2 -152676#1 152692#0 -152953#2 -152953#1 -152953#0 152676#2 -152779#0 152814#0 152814#1 152814#2 152943#2 152943#3 152824 152965#1 152965#2 152965#3 152965#4 152965#5 152965#6 152965#7 152965#8 -153278#2 -153278#1 -152138#1 -152138#0 152806 152822#1 152822#2 152822#3 152822#4 152392 152793#0 152793#1 152832 152801#1 -152801#1 -152832 -152793#1 -152793#0 152472 152299 153645 153644" >
        <stop busStop="131083" duration="30.00" until="47.0"/> <!-- Larvotto -->
        <stop busStop="131209" duration="30.00" until="113.0"/> <!-- Sea Club -->
        <stop busStop="131080" duration="30.00" until="175.0"/> <!-- Plages -->
        <stop busStop="131110" duration="30.00" until="237.0"/> <!-- Grimaldi Forum/Villa Sauber -->
        <stop busStop="131082" duration="30.00" until="295.0"/> <!-- Portier -->
        <stop busStop="131051" duration="30.00" until="373.0"/> <!-- Spelugues -->
        <stop busStop="131050" duration="30.00" until="437.0"/> <!-- Citronniers -->
        <stop busStop="131059" duration="30.00" until="491.0"/> <!-- Place du Casino -->
        <stop busStop="131062" duration="30.00" until="568.0"/> <!-- Monte-Carlo -->
        <stop busStop="131063" duration="30.00" until="689.0"/> <!-- Square Beaumarchais -->
        <stop busStop="131132" duration="30.00" until="756.0"/> <!-- Ostende -->
        <stop busStop="131060" duration="30.00" until="828.0"/> <!-- Place Sainte-Devote (Gare) -->
        <stop busStop="131122" duration="30.00" until="878.0"/> <!-- Princesse Florestine -->
        <stop busStop="131118" duration="30.00" until="997.0"/> <!-- Place d'Armes (Port) -->
        <stop busStop="131121" duration="30.00" until="1066.0"/> <!-- Princesse Stephanie -->
        <stop busStop="131088" duration="30.00" until="1259.0"/> <!-- Fontvieille - Centre Commercial -->
    </route>
    <route id="bus_6:Larvotto" edges="153644 152878#4 152878#5 152878#0 152455 152462#0 152462#1 152462#2 152401#0 152401#1 152650 -152301 -152877#3 -152877#2 -152877#1 -152877#0 152988 152987#3 -152904#1 -152904#0 152980#3 152980#4 152887#0 152887#1 152887#2 152878#5 152878#0 152878#1 152878#2 153643 152300#0 152300#0-AddedOffRampEdge 152300#1 152972 152820#2 152820#3 152820#4 152820#5 152943#0 152943#1 -152814#2 -152814#1 -152814#0 152779#0 152779#2 152779#3 152779#4 152779#5 -152706#1 -152706#0 152671#1 152671#2 152671#3 -152672#2 -152672#1 -152672#0 -152681#4 -152681#3 -152681#2 -152681#1 -152681#0 152658#0 152658#1 152658#2 152538#0 152538#2 152538#3 152538#4 152538#5 152538#6 152538#7" >
        <stop busStop="131088" duration="30.00" until="44.0"/> <!-- Fontvieille - Centre Commercial -->
        <stop busStop="131102" duration="30.00" until="124.0"/> <!-- Papalins -->
        <stop busStop="131058" duration="30.00" until="195.0"/> <!-- Roseraie -->
        <stop busStop="131101" duration="30.00" until="248.0"/> <!-- Heliport -->
        <stop busStop="131202" duration="30.00" until="308.0"/> <!-- Stade Louis II -->
        <stop busStop="131208" duration="30.00" until="401.0"/> <!-- Albert II -->
        <stop busStop="131103" duration="30.00" until="465.0"/> <!-- Port de Fontvieille -->
        <stop busStop="131092" duration="30.00" until="556.0"/> <!-- Stade Nautique -->
        <stop busStop="131093" duration="30.00" until="611.0"/> <!-- Princesse Antoinette -->
        <stop busStop="131096" duration="30.00" until="688.0"/> <!-- Ostende -->
        <stop busStop="131091" duration="30.00" until="750.0"/> <!-- Terrasses du Casino -->
        <stop busStop="131057" duration="30.00" until="844.0"/> <!-- Monte-Carlo (Tourisme) -->
        <stop busStop="131126" duration="30.00" until="922.0"/> <!-- Place du Casino -->
        <stop busStop="131087" duration="30.00" until="992.0"/> <!-- Spelugues -->
        <stop busStop="131043" duration="30.00" until="1054.0"/> <!-- Portier -->
        <stop busStop="131108" duration="30.00" until="1117.0"/> <!-- Grimaldi Forum/Villa Sauber -->
        <stop busStop="131131" duration="30.00" until="1190.0"/> <!-- Plages -->
        <stop busStop="131109" duration="30.00" until="1245.0"/> <!-- Sea Club -->
        <stop busStop="131083" duration="30.00" until="1299.0"/> <!-- Larvotto -->
    </route>
    <route id="bus_4:SaintRoman" edges="153644 152878#4 152878#5 152878#0 152455 152462#0 152462#1 152462#2 152401#0 152401#1 152650 -152301 -152877#3 -152877#2 -152877#1 -152877#0 152988 152987#3 152987#4 152978 -152899#1 -153481#0 152422 152273 152423#0 152423#1 152311 152321#3 152142 152140#0 152140#1 152140#2 152140#3 152140#4 152140#5 152825#0 152825#1 152825#2 152964#4 152964#5 152964#1 152964#2 152964#3 -152825#2 -152825#1 -152825#0 152140#6 152140#7 152140#0 152141 152973 152423#0 -152942#2 -152942#1 -152942#0 152405#3 152903#0 152903#1 152903#2 -152874#4 -152836#6 -152836#5 -152836#4 -152836#3 -152836#2 -152836#1 -152836#0 -152992#1 -152992#0 -152974#3 -152974#2 -152974#1 -152974#0 -152170 152949#0 152949#1 152949#2 152237 152705#0 152705#1 152705#2 152705#3 152705#4 152705#5 152707 152708 152671#1 152671#2 152671#3 152671#4 152671#5 152671#6 152671#7 152671#8 152671#9 152671#10 152671#11 152609#1 152609#2 152172 152226 152457 152458#1 -152586#4 -152586#3 -152586#2 -152586#1 -152352" >
        <stop busStop="131088" duration="30.00" until="44.0"/> <!-- Fontvieille - Centre Commercial -->
        <stop busStop="131102" duration="30.00" until="123.0"/> <!-- Papalins -->
        <stop busStop="131058" duration="30.00" until="193.0"/> <!-- Roseraie -->
        <stop busStop="131101" duration="30.00" until="246.0"/> <!-- Heliport -->
        <stop busStop="131202" duration="30.00" until="308.0"/> <!-- Stade Louis II -->
        <stop busStop="131188" duration="30.00" until="397.0"/> <!-- Cimetiere -->
        <stop busStop="131115" duration="30.00" until="521.0"/> <!-- Place d'Armes (Charles III) -->
        <stop busStop="131100" duration="30.00" until="903.0"/> <!-- Castelleretto -->
        <stop busStop="131036" duration="30.00" until="960.0"/> <!-- Louis Aureglia -->
        <stop busStop="131079" duration="30.00" until="1037.0"/> <!-- Pont Sainte-Devote -->
        <stop busStop="131201" duration="30.00" until="1110.0"/> <!-- Roqueville -->
        <stop busStop="131057" duration="30.00" until="1191.0"/> <!-- Monte-Carlo (Tourisme) -->
        <stop busStop="131061" duration="30.00" until="1249.0"/> <!-- Saint-Charles -->
        <stop busStop="131129" duration="30.00" until="1314.0"/> <!-- Place des Moulins -->
        <stop busStop="131127" duration="30.00" until="1375.0"/> <!-- La Rousse -->
        <stop busStop="131125" duration="30.00" until="1440.0"/> <!-- Carmes -->
        <stop busStop="131085" duration="30.00" until="1509.0"/> <!-- Saint-Roman (Bus 4) -->
    </route>
    <route id="bus_5:Hopital" edges="152538#7 152539#0 152539#1 152539#2 152539#3 152539#4 152539#6 152658#4 152674#3 152681#0 152681#1 152681#2 152681#3 152681#4 152681#5 -152661#2 -152661#1 -152661#0 152671#1 152671#2 152671#3 152718 152177#0 152177#1 -152705#5 -152705#4 -152705#3 -152705#2 -152705#1 -152705#0 152232 152948#0 152948#1 -152818#11 -152950#2 -152950#1 -152950#0 153557#1 153557#2 152874#0 152874#1 152874#2 152874#3 152874#4 152874#5 -152903#1 -152903#0 152405#0 152405#1 152405#2 152942#0 152942#1 152942#2 152423#1 152311 152321#3 152142 152140#0 152141 152973 152423#0 -152942#2 -152942#1 -152942#0 152405#3 152903#0 152903#1" >
        <stop busStop="131083" duration="30.00" until="45.0"/> <!-- Larvotto -->
        <stop busStop="131209" duration="30.00" until="109.0"/> <!-- Sea Club -->
        <stop busStop="131080" duration="30.00" until="171.0"/> <!-- Plages -->
        <stop busStop="131110" duration="30.00" until="234.0"/> <!-- Grimaldi Forum/Villa Sauber -->
        <stop busStop="131082" duration="30.00" until="292.0"/> <!-- Portier -->
        <stop busStop="131051" duration="30.00" until="363.0"/> <!-- Spelugues -->
        <stop busStop="131050" duration="30.00" until="425.0"/> <!-- Citronniers -->
        <stop busStop="131059" duration="30.00" until="477.0"/> <!-- Place du Casino -->
        <stop busStop="131057" duration="30.00" until="555.0"/> <!-- Monte-Carlo (Tourisme) -->
        <stop busStop="131090" duration="30.00" until="626.0"/> <!-- Cremaillere -->
        <stop busStop="131097" duration="30.00" until="705.0"/> <!-- Roqueville -->
        <stop busStop="131047" duration="30.00" until="778.0"/> <!-- Pont Sainte-Devote -->
        <stop busStop="131203" duration="30.00" until="850.0"/> <!-- Belgique -->
        <stop busStop="131107" duration="30.00" until="910.0"/> <!-- Bosio -->
        <stop busStop="131199" duration="30.00" until="981.0"/> <!-- Parc Princesse Antoinette -->
        <stop busStop="131086" duration="30.00" until="1057.0"/> <!-- Hopital -->
        <stop busStop="131056" duration="30.00" until="1328.0"/> <!-- Athanee -->
        <stop busStop="131055" duration="30.00" until="1400.0"/> <!-- Hopital -->
    </route>
    <route id="bus_M3:Turbie" edges="-152749 152933 152912#5 152912#6 152473 -153055#0 153055#0 -152473 -152912#6 153432#12 -153432#12 152912#6 152912#7 152912#8 153577#0 153577#1 -153577#1 -153577#0 -152413#0 152935#0 153012#0 153012#2 153012#3 153012#4 153012#5 153012#6 152410 153641#1 153007#0 152842 153010#1 152238 153343 153646 152333#0 152333#1 152333#2 152407#0 152407#1 152407#2 152407#3 -152407#3 -152407#2 -152407#1 -152407#0 -152333#2 -152333#1 152408 152333#2 152333#3 152333#4 152333#5 152411 -152411 -152333#5 -152333#4 153473#0 152925#0 152925#1 -152929 -152925#0 -153473#0 152333#4 152333#5 152333#6 152333#7 152169 152171#0 152171#1 152402#1 152402#2 152402#3 152402#0 -152171#1 -152171#0 -152169 -152333#7 -152333#6 152411 -152411 152333#6 152333#7 152169 -153011#3 -153011#2 -153011#1 -153011#0 152903#2 -152874#4 -152874#3 -152874#2 -152874#1 -152874#0 153557#3 153557#0 153557#1 153557#2 152874#0 152874#1 152874#2 152874#3 152874#4 152874#5" >
        <stop busStop="131164" duration="30.00" until="37.0"/> <!-- La Turbie Marie -->
        <stop busStop="131040" duration="30.00" until="268.0"/> <!-- 131040 -->
        <stop busStop="131024" duration="30.00" until="747.0"/> <!-- 131024 -->
        <stop busStop="131039" duration="30.00" until="1279.0"/> <!-- 131039 -->
        <stop busStop="131033" duration="30.00" until="1462.0"/> <!-- 131033 -->
        <stop busStop="131022" duration="30.00" until="1679.0"/> <!-- 131022 -->
        <stop busStop="131086" duration="30.00" until="2001.0"/> <!-- Hopital -->
    </route>
    <route id="bus_3:Fontvieille" edges="152840#6 152818#3 152818#4 152818#5 152818#6 152818#7 152818#8 152818#9 152818#10 -152950#2 -152950#1 -152950#0 153557#1 153557#2 152874#0 152874#1 152874#2 152874#3 152874#4 152874#5 -152903#1 -152903#0 152405#0 152405#1 152405#2 152942#0 152942#1 152942#2 152423#1 152311 152321#3 152142 152140#0 152140#1 152140#2 152140#3 152140#4 152140#5 152825#0 152825#1 152825#2 152964#4 152964#5 152964#1 152964#2 152964#3 -152825#2 -152825#1 -152825#0 152140#6 152140#7 -152142 152321#4 152312 152315#3 -152308 152965#5 152965#6 152965#7 152965#8 -153278#2 -153278#1 -152138#1 -152138#0 152806 152822#1 152822#2 152822#3 152822#4 152392 152793#0 152793#1 152832 152801#1 -152801#1 -152832 -152793#1 -152793#0 152472 152299 153645 153644" >
        <stop busStop="131111" duration="30.00" until="44.0"/> <!-- Hector Otto -->
        <stop busStop="131048" duration="30.00" until="114.0"/> <!-- Villa Paloma -->
        <stop busStop="131136" duration="30.00" until="171.0"/> <!-- Rotondes -->
        <stop busStop="131069" duration="30.00" until="221.0"/> <!-- Moneghetti -->
        <stop busStop="131112" duration="30.00" until="279.0"/> <!-- Belgique -->