<?xml version="1.0" encoding="UTF-8"?>

<!--
    Monaco SUMO Traffic (MoST) Scenario
    Copyright (C) 2019
    Lara CODECA

    This program is free software: you can redistribute it and/or modify
    it under the terms of the GNU General Public License as published by
    the Free Software Foundation, either version 3 of the License, or
    (at your option) any later version.

    This program is distributed in the hope that it will be useful,
    but WITHOUT ANY WARRANTY; without even the implied warranty of
    MERCHANTABILITY or FITNESS FOR A PARTICULAR PURPOSE.  See the
    GNU General Public License for more details.

    You should have received a copy of the GNU General Public License
    along with this program.  If not, see <http://www.gnu.org/licenses/>.
-->

<routes xmlns:xsi="http://www.w3.org/2001/XMLSchema-instance" xsi:noNamespaceSchemaLocation="http://sumo.dlr.de/xsd/routes_file.xsd">
    <route id="train_M0:Italy" edges="-152191" >
        <stop busStop="131067" duration="300.00" until="366.0"/> <!-- Carnoles -->
        <stop busStop="131066" duration="300.00" until="822.0"/> <!-- Roquebrune-Cap-Martin -->
        <stop busStop="131034" duration="300.00" until="1222.0"/> <!-- Monte-Carlo Country Club -->
        <stop busStop="131065" duration="300.00" until="1708.0"/> <!-- Monaco - Monte Carlo -->
        <stop busStop="131053" duration="300.00" until="2201.0"/> <!-- Cap d'Ail -->
        <stop busStop="131023" duration="300.00" until="2671.0"/> <!-- Eze -->
    </route>
    <route id="train_M0:France" edges="152193" >
        <stop busStop="131054" duration="300.00" until="315.0"/> <!-- Eze -->
        <stop busStop="131032" duration="300.00" until="785.0"/> <!-- Cap d'Ail -->
        <stop busStop="131028" duration="300.00" until="1278.0"/> <!-- Monaco - Monte Carlo -->
        <stop busStop="131114" duration="300.00" until="1764.0"/> <!-- Monte-Carlo Country Club -->
        <stop busStop="131025" duration="300.00" until="2164.0"/> <!-- Roquebrune-Cap-Martin -->
        <stop busStop="131018" duration="300.00" until="2620.0"/> <!-- Carnoles -->
    </route>
    <flow id="train_M0:Italy" type="train" route="train_M0:Italy" begin="14430.0" end="50430.0" period="1200" line="M0:Italy" >
        <param key="name" value="MoSTtoItaly"/>
    </flow>
    <flow id="train_M0:France" type="train" route="train_M0:France" begin="15167.0" end="51167.0" period="1200" line="M0:France" >
        <param key="name" value="MoSTtoFrance"/>
    </flow>
</routes>
