<?xml version="1.0" encoding="UTF-8"?>

    <!--
        Monaco SUMO Traffic (MoST) Scenario
        Copyright (C) 2018
        Lara CODECA

        This program is free software: you can redistribute it and/or modify
        it under the terms of the GNU General Public License as published by
        the Free Software Foundation, either version 3 of the License, or
        (at your option) any later version.

        This program is distributed in the hope that it will be useful,
        but WITHOUT ANY WARRANTY; without even the implied warranty of
        MERCHANTABILITY or FITNESS FOR A PARTICULAR PURPOSE.  See the
        GNU General Public License for more details.

        You should have received a copy of the GNU General Public License
        along with this program.  If not, see <http://www.gnu.org/licenses/>.
    -->

    <routes xmlns:xsi="http://www.w3.org/2001/XMLSchema-instance" xsi:noNamespaceSchemaLocation="http://sumo.dlr.de/xsd/routes_file.xsd"> 
        <vehicle id="special_2_284" type="special" depart="18007" departLane="best" arrivalPos="random">
            <route edges="-14516#5 13790 -14720 14720 -14493 14516#5 14036 -14519#1 -14519#0 -14478#8 -14478#7 -14478#6 -14478#5 -14478#4 -14478#3 -14478#2 -14478#1 14629#0 14629#1 14629#2 14629#3 14073 13778#0 13778#1 13778#2 13778#3 13773#3 13773#4 13773#5 13775 13776 13774#0 -13760#2 -13760#1 -13760#0 -13722#0 -13749#5 -13749#4 -13749#3 -13749#2 -13749#1 -13749#0 13726#0 13726#1 13726#2 13606#0 13606#2 13606#4 13606#5 13606#6 13606#7 -13418#1 13532 -13531#0"/>
        </vehicle>
        <vehicle id="special_1_25" type="special" depart="18059" departLane="best" arrivalPos="random">
            <route edges="14629#3 14073 13778#0 13778#1 13778#2 13778#3 -13773#2 -13773#1 -13773#0 13299 14017#0 13865 13857#2 13219 14043#0 14624#0 14624#1 14624#2 14624#3 13897#0 13897#1 14034#10 14033#2 14033#3 -13893#2 -13893#1 -13893#0 13189#6 13189#7 13189#0 13189#1 13189#2 -13929 13369 -13970#2 -13970#1 -13970#0 14635 14049#2 14049#3 13958#0 14040#0 14040#1 13530#1 13530#2 13469#0 13469#1 13469#2 13469#3 13930 -13469#4 -13469#3 -13469#2"/>
        </vehicle>
        <vehicle id="special_1_270" type="special" depart="18107" departLane="best" arrivalPos="random">
            <route edges="13839#0 13839#1 13839#2 -13618 -14013#2 -14013#1 -14013#0 13882#1"/>
        </vehicle>
        <vehicle id="special_3_216" type="special" depart="18206" departLane="best" arrivalPos="random">
            <route edges="14531 14533#1 14532#1 14079#0 14079#1 13305 14412 14717 13401#0 13401#1 13401#2 13401#3 13401#4 13401#5 13401#6 13401#7 13218 13220#0 13220#1 13470#1 13470#2 13973#0 13973#1 14062 13886#0 13886#1 13886#2 13886#3 13886#4 13886#5 13886#6 13886#7 13886#8 13886#9 13886#10 13886#11 13831 13300 13857#0 13891 14018#2 13304 13773#0 13773#1 13773#2 -13778#3 -13778#2 -13778#1 -13778#0 -14073 -14071 -14487#16 -14487#15 -14487#14 14489#0 14489#1 14405#0 14405#1"/>
        </vehicle>
        <vehicle id="special_3_87" type="special" depart="18265" departLane="best" arrivalPos="random">
            <route edges="-13822#2 -13822#1 -13822#0 13822#4 13822#5 13822#6 13822#7 13822#8 -13485#0 13484 13516#1 -14509#3 -14509#2 -14509#1 -14509#0 14525#6 14525#7 14507#1 13806#0 -13808#2 -13808#1 -13808#0 14465#0 14465#1 14637#0 14637#2 14466 14461#1 14461#2 -13700#1 -13700#0 -14458#5 -14458#4 -14458#3 -14458#2 -14458#1 -14458#0 -14457#0 -13320 -14459#1 -14459#0 -13321 -14486#5 -14403#5 -14403#4 -14405#11 -14405#10 -14405#9 -14405#8 -14405#7 -14405#6 -14405#5 -14405#4 -14405#2 -14405#1 -14405#0 -14489#1 -14489#0 14487#14 14487#15 14487#16 14071 14073 13778#0 13778#1 13778#2 13778#3 13773#3 13773#4 13773#5 13775 13776 13739#1 13739#2 13739#3 13739#4 13739#5 13739#6 13739#7 13739#8 13739#9 13739#10 13724#0 13724#1 -13425#0"/>
        </vehicle>
        <vehicle id="special_3_176" type="special" depart="18312" departLane="best" arrivalPos="random">
            <route edges="-13975 14532#1 14079#0 14079#1 13305 14412 14717 13401#0 13401#1 13401#2 13401#3 13401#4 13401#5 13401#6 13401#7 13218 13220#0 13220#1 13470#1 13470#2 13973#0 13973#1 14062 13886#0 13886#1 13886#2 13886#3 13886#4 13886#5 13886#6 13886#7 13886#8 13886#9 13886#10 13886#11 13831 13300 13857#0 13891 14018#2 13304 13773#0 13839#0 13839#1 13839#2 -13618 -14013#2 -14013#1 -14013#0"/>
        </vehicle>
        <vehicle id="special_3_261" type="special" depart="18384" departLane="best" arrivalPos="random">
            <route edges="13482 -13483 14000#1 14000#2 14000#3 13609 13516#1 -14509#3 -14509#2 -14509#1 -14509#0 14525#6 14525#7 14507#1 13806#0 -13808#2 -13808#1 -13808#0 14465#0 14465#1 14637#0 14637#2 14466 14461#1 14461#2 -13700#1 -13700#0 -14458#5 -14458#4 -14458#3 -14458#2 -14458#1 -14458#0 14457#1 14457#2 14457#3 14457#4 -13316 14443#0 14443#1 13315 13637 13377 -14446#4 -14446#3 -14446#2 14554#0 14554#1 14554#2 14554#3 14554#4 14554#5 14554#6 14554#7 13657#1 13421 13654#0 13654#1 -13662#2 -13662#1 -13662#0 -14454#4 -14454#3 -14454#2 -14454#1"/>
        </vehicle>
        <vehicle id="special_2_465" type="special" depart="18416" departLane="best" arrivalPos="random">
            <route edges="-14556#1 -14556#0 -13980#1 -13980#0 14507#1 13806#0 -13808#2 -13808#1 -13808#0 14465#0 14465#1 14637#0 14401#0 14401#1 14401#2 14401#3 14401#4 14401#5 14401#6 14401#7 14401#8 14401#9 14401#11 14401#12 -14409#7 -14409#6 -14409#5 -14409#4 -14409#3 -14409#2 -14409#1 -14409#0 14518#2 14518#3 14518#4 14518#5 13964#1 -13370 13963#0 13963#1 13470#0 -13220#1 -13220#0 -14080#3 -14080#2 -14080#1 -14080#0"/>
        </vehicle>
        <vehicle id="special_2_122" type="special" depart="18453" departLane="best" arrivalPos="random">
            <route edges="-13765#2 -13563#5 -13563#3 -13563#2 -13563#1 -13563#0 13773#5 13775 13776 13774#0 -13760#2 -13760#1 -13760#0 -13722#0 -13749#5 -13749#4 -13749#3 -13749#2 -13749#1 -13749#0 13726#0 13726#1 13726#2 13606#0 13606#2 13606#4 13606#5 13606#6 13606#7 13418#0"/>
        </vehicle>
        <vehicle id="special_2_231" type="special" depart="18477" departLane="best" arrivalPos="random">
            <route edges="-14003#4 -14003#3 -14003#2 -14003#1 14081#0 14081#2 14081#3 14081#4 14081#5 14081#6 13478 14712#1 14038 13465 14717 13401#0 13401#1 13401#2 13401#3 13401#4 13401#5 13401#6 13401#7 13218 -14080#3 -14080#2 -14080#1 -14080#0 -13971#1 -13971#0 13473#0 13473#1 13473#2 14011#0 14011#1 14011#2 13491#1 13379 13389#3 13389#4 13380 13383#3 -13375 -13903#2 -13903#1 -13903#0 13888#4 13888#5 14012#0 14012#1 14012#2 14012#3 13892 14034#1 13877#0"/>
        </vehicle>
        <vehicle id="special_1_382" type="special" depart="18735" departLane="best" arrivalPos="random">
            <route edges="13607#2 13607#4 13607#6 13726#4 13742#3 13749#0 13749#1 13749#2 13749#3 13749#4 13749#5 13722#0 13744#1 13744#2 13847#2 -13737 -13788 -13839#3 -13839#2 -13852 -13773#2 -13773#1 13839#0 13839#1"/>
        </vehicle>
        <vehicle id="special_2_128" type="special" depart="18793" departLane="best" arrivalPos="random">
            <route edges="-14421#2 -14421#1 -14421#0 -13313 -14426 13312 14424 14425 13311 -14436#1 14434#0 14434#1 14400#1 14400#2 14400#3 14400#4 14446#1 14554#0 14554#1 14554#2 14554#3 14554#4 14554#5 14554#6 14554#7 13657#1 13421 13654#0 13654#1 13654#2 13654#3 13654#4 13526#2 13526#3 13526#4 -13525 -13293 -13221 -13677#2 -13677#1 -13677#0 -13739#10 -13739#9 -13739#8 -13739#7 -13739#6 -13739#5 -13739#4 13786#0 13786#1 13786#2 -13773#5 -13773#4 -13773#3 -13773#2 -13773#1 -13773#0 13299 14017#0 14017#1 -13886#11 -13886#10 -13886#9 -13886#8 -13886#7 -13886#6 -13886#5 -13886#4 -13886#3 -13886#2 -13886#1 -13968"/>
        </vehicle>
        <vehicle id="special_1_368" type="special" depart="18802" departLane="best" arrivalPos="random">
            <route edges="-13908#4 -13908#3 -13908#2 -13462 13908#3 13908#4 13908#5 13908#6 13886#3 13886#4 13886#5 13886#6 13886#7 13886#8 13886#9 13886#10 13886#11 13831 13300 13857#0 13857#1 13857#2 13219 14043#0 14043#1 14043#2 14043#3 14043#4 -13867#1 13880"/>
        </vehicle>
        <vehicle id="special_2_179" type="special" depart="18873" departLane="best" arrivalPos="random">
            <route edges="-14550#5 -14550#3 -14550#2 -14550#1 -14550#0 13490 13340 13491#0 13491#1 13379 13389#3 13389#4 13380 13383#3 -13375 -13903#2 -13903#1 -13903#0 13888#4 13888#5 14012#0 14012#1 -13882#2 -13882#1 -13882#0 13847#0 -13744#2 -13744#1 13722#1 13842"/>
        </vehicle>
        <vehicle id="special_3_204" type="special" depart="18899" departLane="best" arrivalPos="random">
            <route edges="13485#3 13322 14469 13323 -14510 14510 -13323 -14469 -13322 -13485#3 -13485#2 -13485#1 -13485#0 13484 13516#1 -14509#3 -14509#2 -14509#1 -14509#0 14525#6 14525#7 14507#1 13806#0 -13808#2 -13808#1 -13808#0 14465#0 14465#1 14637#0 14637#2 14466 14461#1 14461#2 -13700#1 -13700#0 -14458#5 -14458#4 -14458#3 -14458#2 -14458#1 -14458#0 -14457#0 -13320 -14459#1 -14459#0 -13321 -14486#5 -14403#5 -14403#4 -14405#11 -14405#10 -14405#9 -14405#8 -14405#7 -14405#6 -14405#5 -14405#4 -14405#2 -14405#1 -14405#0 -14489#1 -14489#0 14487#14 14487#15 14487#16 14071 14073 13778#0 13778#1 13778#2 13778#3 13773#3 13773#4 13773#5 13775 13776 13774#0 -13760#2 -13760#1 -14022#2 -14022#1 -14022#0"/>
        </vehicle>
        <vehicle id="special_3_9" type="special" depart="18947" departLane="best" arrivalPos="random">
            <route edges="14533#1 14532#1 14079#0 14079#1 13305 14412 14717 13401#0 13401#1 13401#2 13401#3 13401#4 13401#5 13401#6 13401#7 13218 -14080#3 -14080#2 -14080#1 -14080#0"/>
        </vehicle>
        <vehicle id="special_1_471" type="special" depart="18987" departLane="best" arrivalPos="random">
            <route edges="-13469#3 -13469#2 -13469#1 -13469#0 13530#3 13530#0 -14040#1 -14040#0 -13958#0 14049#4 14049#1 -14635 13970#0 13970#1 13970#2 -13369 13929 13189#3 13189#4 13189#5 13189#6 13189#7 -13191 13389#4 13380 13383#3 -13375 14034#5 14034#6 14034#7 14034#8 -13897#1 -13897#0 -14624#3 -14624#2 -14624#1 -14624#0 -14043#0 13899#0 13899#1 14627#0 14627#1 14627#2 14627#3"/>
        </vehicle>
        <vehicle id="special_3_88" type="special" depart="18999" departLane="best" arrivalPos="random">
            <route edges="14531 14533#1 14532#1 14079#0 14079#1 13305 14412 14717 13401#0 13401#1 13401#2 13401#3 13401#4 13401#5 13401#6 13401#7 13218 13220#0 13220#1 13470#1 13470#2 13973#0 13973#1 14062 13886#0 13886#1 13886#2 13886#3 13886#4 13886#5 13886#6 13886#7 13886#8 13886#9 13886#10 13886#11 13831 13300 13857#0 13891 14018#2 13304 13773#0 13773#1 13773#2 13773#3 13773#4 13773#5 13775 13777#0 13777#1 13777#2 13750 13614 13719#0 13720#0 13720#1 13720#2 13720#3 13720#4 13720#5 13720#6 13424#2 13424#3 -13585#1 -13585#0"/>
        </vehicle>
        <vehicle id="special_2_368" type="special" depart="19011" departLane="best" arrivalPos="random">
            <route edges="13720#6 13424#2 13424#3 13424#4 13424#1 -13720#6 -13720#5 -13720#4 -13720#3 -13720#2 -13720#1 14474 14475 13719#2 14479#0 14479#1 14479#2 14479#3 14480#0 14480#1 14480#2 14014 13756 13786#2 -13773#5 -13773#4 -13773#3 -13778#3 -13778#2 -13778#1 -13778#0 -14073 -14071 -14487#16 -14487#15 -14487#14 14489#0 14489#1 14405#0 14405#1 14405#2 14405#4 14405#5 14405#6 14405#7 14405#8 14405#9 14405#10 14405#11 -14403#3 -14403#2 -14403#1 -14403#0"/>
        </vehicle>
        <vehicle id="special_2_82" type="special" depart="19117" departLane="best" arrivalPos="random">
            <route edges="-13425#0 13424#3 13424#4 13424#1 13424#2 13425#0 13425#1 -13724#0 -13739#10 -13739#9 -13739#8 -13739#7 -13739#6 -13739#5 -13739#4 -13739#3 -13739#2 -13739#1 13774#0 13774#1 -13847#5 -13847#4 -13847#3 -13847#2 -13847#0 13882#0 13882#1 13882#2 14012#2 14012#3 13892 14034#1 14034#2 14034#3 14034#4 13375 13383#0 13383#1 13383#2 -13380 13389#1 13388 -13970#2 -13970#1 -13970#0 14635 14049#2 14049#3 13958#0 14040#0 14040#1 13530#1 13530#2 13469#0 13469#1 13469#2 13469#3 13930 -13469#4 -13469#3"/>
        </vehicle>
        <vehicle id="special_2_86" type="special" depart="19122" departLane="best" arrivalPos="random">
            <route edges="-13627 -14431#2 -14428#2 -14428#1 -14428#0 -14433#1 -14433#0 14006#3 14006#0 -13630#6 -13630#5 -13630#4 -13630#3 -13630#2 -13630#1 -13630#0 14446#1 14554#0 14554#1 14554#2 14554#3 14554#4 14554#5 14554#6 14554#7 13657#1 13421 13654#0 13654#1 13654#2 13654#3 13654#4 13526#2 13526#3 13526#4 -13525 -13293 -13221 13674 13679 13434#3 13434#0 13434#1 -13741#1 -13741#0 -13296 -13360 -13833 -13361 -13872 -13362 -13866 13363 13456 -13276 13533 13382 13383#2 -13380 13389#1 13388 -13970#2 -13970#1 -13970#0 14635 14049#2 14049#3 13958#0 14040#0 14040#1 13530#1 13530#2 13469#0 13469#1 13469#2 13469#3 13930 -13469#4 -13469#3"/>
        </vehicle>
        <vehicle id="special_3_116" type="special" depart="19146" departLane="best" arrivalPos="random">
            <route edges="13485#3 13322 14469 13323 -14510 14510 -13323 -14469 -13322 -13485#3 -13485#2 -13485#1 -13485#0 13484 13516#1 -14509#3 -14509#2 -14509#1 -14509#0 -14525#5 14530#0 14530#1 14530#2 14530#3 14530#4 14530#5 14530#6 14081#6 13478 14712#1 14038 13465 14717 13401#0 13401#1 13401#2 13401#3 13401#4 13401#5 13401#6 13401#7 13218 -14080#3 -14080#2 -14080#1 -14080#0 -13971#1 -13971#0 13473#0 13473#1 13473#2 14011#0 14011#1 14011#2 13491#1 13379 13389#3 13191 13189#0 13189#1 13189#2 13189#3 13189#4 13189#5 13893#0 13893#1 13893#2 14033#4 -13889#3 -13889#2 -13889#1 -13889#0 -13848 13932 13934 -13961 13957 13956#0 13956#1 13953 13954 14016 13952#1 13952#2 13949 13941 13935"/>
        </vehicle>
        <vehicle id="special_1_275" type="special" depart="19161" departLane="best" arrivalPos="random">
            <route edges="13839#0 13839#1 13839#2 13839#3 14013#5 -13774#1 -13774#0 13739#1 13739#2 13739#3 13739#4 13739#5 13739#6 13739#7 13739#8 13739#9 13739#10 13739#11 13677#1 13677#2 13221 13293 13525 13526#1 13526#2 13687#0 13687#1 13687#2 -13390 -14039#1 13527 13528#0 13528#1"/>
        </vehicle>
        <vehicle id="special_3_156" type="special" depart="19172" departLane="best" arrivalPos="random">
            <route edges="14510 -13323 -14469 -13322 -13485#3 -13485#2 -13485#1 -13485#0 13484 13516#1 -14509#3 -14509#2 -14509#1 -14509#0 14525#6 14525#7 14507#1 13806#0 -13808#2 -13808#1 -13808#0 14465#0 14465#1 14637#0 14637#2 14466 14461#1 14461#2 -13700#1 -13700#0 -14458#5 -14458#4 -14458#3 -14458#2 -14458#1 -14458#0 -14457#0 -13320 -14459#1 -14459#0 -13321 -14486#5 -14403#5 -14403#4 -14405#11 -14405#10 -14405#9 -14405#8 -14405#7 -14405#6 -14405#5 -14405#4 -14405#2 -14405#1 -14405#0 -14489#1 -14489#0 14487#14 14487#15 14487#16 14071 14073 14072 13781#1 13765#0 13765#1 -13563#5 -13563#3 -13563#2 -13769"/>
        </vehicle>
        <vehicle id="special_1_337" type="special" depart="19177" departLane="best" arrivalPos="random">
            <route edges="-13971#0 13473#0 13473#1 13473#2 14011#0 14011#1 14011#2 13491#1 13379 13389#3 13389#4 13380 13383#3 -13375 14034#5 14034#6 14034#7 14034#8 -13897#1 -13897#0 -14624#3 -14624#2 -14624#1 -14624#0"/>
        </vehicle>
        <vehicle id="special_3_109" type="special" depart="19261" departLane="best" arrivalPos="random">
            <route edges="-14468#2 -14468#1 -14468#0 -13485#2 -13485#1 -13485#0 13484 13516#1 -14509#3 -14509#2 -14509#1 -14509#0 -14525#5 14530#0 14530#1 14530#2 14530#3 14530#4 14530#5 14530#6 14081#6 13478 14712#1 14038 13465 14717 13401#0 13401#1 13401#2 13401#3 13401#4 13401#5 13401#6 13401#7 13218 -14080#3 -14080#2 -14080#1 -14080#0 -13971#1 -13971#0"/>
        </vehicle>
        <vehicle id="special_2_331" type="special" depart="19303" departLane="best" arrivalPos="random">
            <route edges="14717 13401#0 13401#1 13401#2 13401#3 13401#4 13401#5 13401#6 13401#7 13218 -14080#3 -14080#2 -14080#1 -14080#0 -13971#1 -13971#0 13473#0 13473#1 13473#2 14011#0 14011#1 14011#2 13491#1 13379 13389#3 13191 13189#0 13189#1 13189#2 13189#3 13189#4 13189#5 13893#0 13893#1 13893#2 14033#4 14033#5 13851 13890#0 13890#1 13890#2 13890#3 13890#4 13460 13861#0 13494#0 13494#1"/>
        </vehicle>
        <vehicle id="special_2_111" type="special" depart="19314" departLane="best" arrivalPos="random">
            <route edges="-14448#10 -14448#9 -14448#8 -14004 14448#7 14448#8 14448#9 14448#10 14448#11 14448#12 14448#13 14448#14 14005#1 14005#2 14005#3 -14473#1 -14473#0 13721#0 13721#1 13721#2 13721#3 13721#4 13721#5 14480#0 14480#1 14480#2 14014 13756 13786#2 13775 13776 13739#1 13739#2 13739#3 13739#4 13739#5 13739#6 13739#7 13739#8 13739#9 13739#10 13739#11 13677#1"/>
        </vehicle>
        <vehicle id="special_2_406" type="special" depart="19338" departLane="best" arrivalPos="random">
            <route edges="13700#1 14461#3 14461#4 -13700#0 -14458#5 -14458#4 -14458#3 -14458#2 -14458#1 -14458#0 -14457#0 -13320 -14459#1 -14459#0 -13321 -14486#5 -14403#5 -14403#4 -14405#11 -14405#10 -14405#9 -14405#8 -14405#7 -14405#6 -14405#5 -14405#4 -14405#2 -14405#1 -14405#0 -14489#1 -14489#0 14487#14 14487#15 14487#16 14071 14073 13778#0 13778#1 13778#2 13778#3 13773#3 13773#4 13773#5 13775 13776 13739#1 13739#2 13739#3 13739#4 13739#5 13739#6 13739#7 13739#8 13739#9 13739#10 13724#0 13435 -13435 -13724#0 -13739#10"/>
        </vehicle>
        <vehicle id="special_3_52" type="special" depart="19357" departLane="best" arrivalPos="random">
            <route edges="-13975 14532#1 14079#0 14079#1 13305 14412 14717 13401#0 13401#1 13401#2 13401#3 13401#4 13401#5 13401#6 13401#7 13218 13220#0 13220#1 13470#1 13470#2 13973#0 13973#1 14062 13886#0 13886#1 13886#2 13886#3 13886#4 13886#5 13886#6 13886#7 13886#8 13886#9 13886#10 13886#11 13831 13300 13857#0 13891 14018#2 13304 13773#0 13773#1 13773#2 13773#3 13773#4 13773#5 13775 13777#0 13777#1 13777#2 13750 13614 13755"/>
        </vehicle>
        <vehicle id="special_1_135" type="special" depart="19374" departLane="best" arrivalPos="random">
            <route edges="13786#0 13786#1 13786#2 -13773#5 -13773#4 -13773#3 -13773#2 -13773#1 -13773#0 13299 14017#0 13865 13857#2 13219 14043#0 14624#0 14624#1 14624#2 14624#3 13897#0 13897#1 14034#10 14033#2 14033#3 14033#4 -13889#3"/>
        </vehicle>
        <vehicle id="special_1_381" type="special" depart="19374" departLane="best" arrivalPos="random">
            <route edges="-13276 13533 13382 13383#2 13383#3 -13375 14034#5 14034#6 14034#7 14034#8 14034#10 14033#2 14033#3 14033#4 -13889#3 -13889#2 -13889#1 -13889#0 -13848 13932 13934 -13961 13957 13956#0 13956#1 13953 13954 14016"/>
        </vehicle>
        <vehicle id="special_2_483" type="special" depart="19406" departLane="best" arrivalPos="random">
            <route edges="-13430 -14564#1 -14564#0 -13804 -14498#1 13806#0 -13808#2 -13808#1 -13808#0 14465#0 14465#1 14637#0 14401#0 14401#1 14401#2 14401#3 14401#4 14401#5 14401#6 14401#7 14401#8 14401#9 14401#11 14401#12 -14409#7 -14409#6 -14409#5 -14409#4 -14409#3 -14409#2 -14409#1 -14409#0 14518#2 14518#3 14518#4 14518#5 13964#1 -13370 13963#0 13963#1 13470#0 -13220#1 -13220#0 -14080#3 -14080#2 -14080#1 -14080#0 -13971#1 -13971#0 13473#0 13473#1 13473#2 14011#0"/>
        </vehicle>
        <vehicle id="special_2_2" type="special" depart="19415" departLane="best" arrivalPos="random">
            <route edges="14519#1 14515#0 14517 13884#1 13884#2 13884#3 13884#4 13884#5 13886#8 13886#9 13886#10 13886#11 13831 13300 13857#0 13857#1 13857#2 13219 14043#0 14624#0 14624#1 14624#2 14624#3 13897#0 13897#1 14034#10 14033#2 14033#3 -13893#2 -13893#1 -13893#0 13189#6 13189#7 13189#0 13189#1 13189#2 -13929 13369 -13970#2 -13970#1 -14634#2 -14634#1 -14634#0"/>
        </vehicle>
        <vehicle id="special_3_166" type="special" depart="19436" departLane="best" arrivalPos="random">
            <route edges="-14532#0 -14533#0 -13326 14534 -14534 13326 14533#0 14533#1 14532#1 14079#0 14079#1 13305 14412 14717 13401#0 13401#1 13401#2 13401#3 13401#4 13401#5 13401#6 13401#7 13218 13220#0 13220#1 13470#1 13470#2 13973#0 13973#1 14062 13886#0 13886#1 13886#2 13886#3 13886#4 13886#5 13886#6 13886#7 13886#8 13886#9 13886#10 13886#11 13831 13300 13857#0 13891 14018#2 13304 13773#0 13839#0 13839#1 13839#2 13839#3 13788 13737 -13847#2 -13744#2 -13744#1 -13722#0 -13749#5 13740#0 13740#1 -13736#6 -13736#5 -13736#4 -13736#3 -13736#2 -13736#1 -13736#0 13434#1 13434#2 -13679 -13674"/>
        </vehicle>
        <vehicle id="special_1_327" type="special" depart="19471" departLane="best" arrivalPos="random">
            <route edges="-13523 13946#1 13946#2 14714 13367#0 13367#0-AddedOffRampEdge 13367#1 14041 13888#2 13888#3 13903#0 13457#1 13457#2 -13856#1 -13856#0 -13838#1 -13838#0 14034#7 14034#8 -13897#1 -13897#0 -14624#3 -14624#2 -14624#1 -14624#0 -14043#0 13899#0 13899#1 14627#0 14627#1 14627#2 13942#0 13942#1 13942#2 13942#3 13942#4"/>
        </vehicle>
        <vehicle id="special_1_544" type="special" depart="19514" departLane="best" arrivalPos="random">
            <route edges="13942#2 13942#3 -13904#6 -13904#5 -13904#4 -13904#3 -13904#2 -13904#1 -13904#0 -14061#1 -14061#0 -14043#4 -14043#3 -14043#2 -14043#1 -14043#0 13899#0 13899#1 14627#0 14627#1 -13854 -13873 13886#9 13886#10"/>
        </vehicle>
        <vehicle id="special_3_273" type="special" depart="19514" departLane="best" arrivalPos="random">
            <route edges="14533#1 14532#1 14079#0 14079#1 13305 14412 14717 13401#0 13401#1 13401#2 13401#3 13401#4 13401#5 13401#6 13401#7 13218 -14080#3 -14080#2 -14080#1 -14080#0 -13971#1 -13971#0 13473#0 13473#1 13473#2 14011#0 14011#1 14011#2 13491#1 13379 13389#3 13389#4 13380 13383#3 -13375 14034#5 14034#6 14034#7 14034#8 -14347#2 -14347#1 -13187#1 -13187#0 -13840 -13186 14347#0"/>
        </vehicle>
        <vehicle id="special_2_543" type="special" depart="19525" departLane="best" arrivalPos="random">
            <route edges="-13983#1 -13983#0 13966#1 -13945#0 14057 14056#3 -13972#1 -13972#0 14049#3 14049#4 13955#0 13955#1 13955#2 13946#5 13946#0 13946#1 13946#2 14714 13367#0 13367#0-AddedOffRampEdge 13367#1 14041 13888#2 13888#3 13888#4 13888#5 14012#0 14012#1 -13882#2 -13882#1 -13882#0 13847#0 13847#2 13847#3 13847#4 13847#5 -13774#1 -13774#0 13739#1 13739#2 13739#3 13739#4 13739#5 13739#6 13739#7 13739#8"/>
        </vehicle>
        <vehicle id="special_1_569" type="special" depart="19543" departLane="best" arrivalPos="random">
            <route edges="14019#2 13886#11 13831 13300 13857#0 13857#1 13857#2 13219 14043#0 14624#0 14624#1 14624#2 14624#3 13897#0 13897#1 14034#10 14033#2 14033#3 14033#4 -13889#3 -13889#2 -13889#1 -13889#0 -13848 13932 13934 -13961"/>
        </vehicle>
        <vehicle id="special_2_192" type="special" depart="19549" departLane="best" arrivalPos="random">
            <route edges="-14400#1 14064 -14064 14400#1 14400#2 14400#3 14400#4 14446#1 14554#0 14554#1 14554#2 14554#3 14554#4 14554#5 14554#6 14554#7 13657#1 13421 13654#0 13654#1 13654#2 13654#3 13654#4 13526#2 13526#3 13526#4 -13525 -13293 -13221 13674 13679 13434#3 13434#0 13434#1 -13741#1 -13741#0 -13296 -13360 -13833 -13361 -13872 -13362 -13866 13363 13456 -13276 13533 13382 13383#2 13383#3 -13375 14034#5 14034#6 14034#7 14034#8 -14347#2 -14347#1 -14347#0"/>
        </vehicle>
        <vehicle id="special_1_557" type="special" depart="19567" departLane="best" arrivalPos="random">
            <route edges="13904#0 13904#1 13904#2 13904#3 13904#4 13904#5 13904#6 -13942#3 -13942#2 -13942#1 -13942#0 14627#3 14627#0 14019#0 14019#1 14019#2 13886#11 13831 13300 13857#0 13857#1 13857#2 13219 14043#0 14043#1"/>
        </vehicle>
        <vehicle id="special_1_272" type="special" depart="19576" departLane="best" arrivalPos="random">
            <route edges="14512 13886#9 13886#10 13886#11 13831 13300 13857#0 13891 14018#2 13304 13773#0 13839#0 13839#1 13839#2 13839#3 14013#5"/>
        </vehicle>
        <vehicle id="special_2_526" type="special" depart="19588" departLane="best" arrivalPos="random">
            <route edges="13720#3 13720#4 13720#5 14472#0 14472#1 14472#2 14472#3 14470#4 14085#0 14085#1 13721#1 13721#2 13721#3 13721#4 13721#5 14480#0 14480#1 14480#2 14014 13756 13786#2 -13773#5 -13773#4 -13773#3 -13778#3 -13778#2 -13778#1 -13778#0 -14073 -14071 -14487#16 -14487#15 -14487#14 14489#0 14489#1 14405#0 14405#1 14405#2 14405#4 14070#0 14070#2 14070#3 14070#4 14070#5 14070#6 14070#7 14070#8 -14473#0 14487#0 14487#1 14487#3 14487#4 14487#5 14487#6 14487#7"/>
        </vehicle>
        <vehicle id="special_2_289" type="special" depart="19597" departLane="best" arrivalPos="random">
            <route edges="-13481#3 -14528#1 -14528#0 14528#0 14528#1 13481#3 13401#0 13401#1 13401#2 13401#3 13401#4 13401#5 13401#6 13401#7 13218 13220#0 13220#1 13470#1 13470#2 13973#0 13973#1 14062 13886#0 13886#1 13886#2 13886#3 13886#4 13886#5 13886#6 13886#7 13886#8 13886#9 13886#10 13886#11 13831 13300 13857#0 13891 14018#2 13304 13773#0 13773#1 13773#2 -13778#3 -13778#2 -13778#1 -13778#0 -14073 -14071 -14487#16 -14487#15 -14487#14 -14487#13 -14487#12 -14487#11 -14487#10 -14487#9 -14487#8 -14487#7 -14487#6 -14487#5 -14487#4 -14487#3 -14487#1 -14487#0 14473#0 14473#1 14005#4 14005#0 14005#1 14005#2 14403#0 14403#1 14403#2"/>
        </vehicle>
        <vehicle id="special_2_178" type="special" depart="19617" departLane="best" arrivalPos="random">
            <route edges="-13919 14530#4 14530#5 14530#6 14081#6 13478 14712#1 14038 13465 14717 13401#0 13401#1 13401#2 13401#3 13401#4 13401#5 13401#6 13401#7 13218 13220#0 13220#1 13470#1 13470#2 13973#0 13973#1 14062 13886#0 13886#1 13886#2 13886#3 13886#4 13886#5 13886#6 13886#7 13886#8 13886#9 13886#10 13886#11 13831 13300 13857#0 13891 14018#2 13304 13773#0 13773#1 13773#2 13773#3 13773#4 13773#5 13775 13777#0 13777#1 13777#2 13750 13614 13719#0 13720#0 13720#1"/>
        </vehicle>
        <vehicle id="special_2_183" type="special" depart="19698" departLane="best" arrivalPos="random">
            <route edges="-13825 13984#8 14056#1 14056#2 14056#3 -13972#1 -13959#2 -13959#1 -13959#0 13970#0 13970#1 13970#2"/>
        </vehicle>
        <vehicle id="special_1_292" type="special" depart="19801" departLane="best" arrivalPos="random">
            <route edges="13680 -13678#7 -13678#6 -13678#5 -13678#4 -13678#3 -13678#2 -13689 -13682 13674 13679 13434#3 13434#0 13434#1 -13741#1 13742#0"/>
        </vehicle>
        <vehicle id="special_1_317" type="special" depart="19810" departLane="best" arrivalPos="random">
            <route edges="13735 -13732#1 -13732#0 13749#3 13749#4 13749#5 13722#0 13744#1 13744#2 13847#2 -13737 -13788 -13839#3 -13839#2 -13839#1 -13839#0 -13773#0 13299 14017#0 14017#1 -13886#11 -14019#2 -14019#1 -14019#0 14627#1 -13854"/>
        </vehicle>
        <vehicle id="special_1_90" type="special" depart="19828" departLane="best" arrivalPos="random">
            <route edges="13607#2 13607#4 13607#6 13727 13741#0 13741#1 13434#2 -13679 -13674 13221 13293 13525 13526#1 -13654#4"/>
        </vehicle>
        <vehicle id="special_2_189" type="special" depart="19840" departLane="best" arrivalPos="random">
            <route edges="14080#0 14080#1 14080#2 14080#3 13220#0 13220#1 13470#1 13470#2 13973#0 13973#1 13391 13474 13490 13340 13491#0 13491#1 13379 13389#3 13191 13189#0 13189#1 13189#2 13189#3 13189#4 13189#5 13893#0 13893#1 13893#2 14033#4 -13889#3 -13889#2 -13889#1 -13889#0 -13848 13932 13934 -13961 13957 13956#0 13956#1 13953 13954 14016 13952#1 13952#2 13949 13941 13935"/>
        </vehicle>
        <vehicle id="special_2_172" type="special" depart="19897" departLane="best" arrivalPos="random">
            <route edges="-14010#2 -14010#1 -14010#0 14039#0 14039#1 13390 -13687#2 -13687#1 -13687#0 13526#3 13526#4 -13525 -13293 -13221 13674 13679 13434#3 13434#0 13434#1 -13741#1 -13741#0 -13296 -13360 -13833 -13361 -13872 -13362 -13866 13363 13456 -13276 13533 13382 13383#2 -13380 13389#1 13388 -13970#2 -13970#1 -13970#0 14048 13959#1 -14633"/>
        </vehicle>
        <vehicle id="special_2_41" type="special" depart="19918" departLane="best" arrivalPos="random">
            <route edges="-14508 -14506 -13817 -13980#0 14507#1 13806#0 -13808#2 -13808#1 -13808#0 14465#0 14465#1 14637#0 14637#2 14466 14461#1 14461#2 -13700#1 -13700#0 -14458#5 -14458#4 -14458#3 -14458#2 -14458#1 -14458#0 -14457#0 -13320 -14459#1 -14459#0 -13321 -14486#5 -14403#5 -14403#4 -14405#11 -14405#10 -14405#9 -14405#8 -14405#7 -14405#6 -14405#5 -14405#4 -14405#2 -14405#1 -14405#0 -14489#1 -14489#0 14487#14 14487#15 14487#16 14071 14073 13778#0 13778#1 13778#2 13778#3 13773#3 13773#4 13773#5"/>
        </vehicle>
        <vehicle id="special_1_595" type="special" depart="19937" departLane="best" arrivalPos="random">
            <route edges="-14518#2 -14518#0 -14515#3 -14515#2 -14515#1 14517 13884#1 13884#2 13884#3 13884#4 13884#5 13886#8 13886#9 13886#10 13886#11 13831 13300 13857#0 13891 14018#2 13304 13773#0 13773#1 13773#2 13773#3 13773#4 13773#5 13775 13776 13739#1 13739#2 13739#3 13739#4 13739#5 13739#6 13739#7 13739#8 13739#9 13739#10 13739#11 13677#1 13677#2 13221 13293 13525 13526#1 13526#2 13526#3 13526#4 -13525 -13293 -13221 -13677#2 -13677#1"/>
        </vehicle>
        <vehicle id="special_1_19" type="special" depart="19948" departLane="best" arrivalPos="random">
            <route edges="13839#0 13839#1 13839#2 13839#3 14013#5 -13774#1 -13774#0 13739#1 13739#2 13739#3 13739#4 13739#5 13739#6 13739#7 13739#8 13739#9 13739#10 13739#11 13677#1 13677#2 13221 13293 13525 13526#1 -13654#4 -13654#3 -13654#2 -13662#2 -13662#1 -13662#0 -14454#4 -14454#3"/>
        </vehicle>
        <vehicle id="special_3_35" type="special" depart="19976" departLane="best" arrivalPos="random">