<?xml version="1.0" encoding="UTF-8"?>

<!--
    Monaco SUMO Traffic (MoST) Scenario
    Copyright (C) 2019
    Lara CODECA

    This program is free software: you can redistribute it and/or modify
    it under the terms of the GNU General Public License as published by
    the Free Software Foundation, either version 3 of the License, or
    (at your option) any later version.

    This program is distributed in the hope that it will be useful,
    but WITHOUT ANY WARRANTY; without even the implied warranty of
    MERCHANTABILITY or FITNESS FOR A PARTICULAR PURPOSE.  See the
    GNU General Public License for more details.

    You should have received a copy of the GNU General Public License
    along with this program.  If not, see <http://www.gnu.org/licenses/>.
-->

<routes xmlns:xsi="http://www.w3.org/2001/XMLSchema-instance" xsi:noNamespaceSchemaLocation="http://sumo.dlr.de/xsd/routes_file.xsd"> 
    <vehicle id="commercial_1-3_304" type="commercial" depart="18000" departLane="best" arrivalPos="random">
        <route edges="152535#4 152535#6 152654#4 152670#3 152670#4 152282 -152290 -152761 -152291 -152800 -152292 -152794 152293 152385 -152206 152461 152311 152312#2 -152309 152318#1 152318#2 -152308 152281 152530 -152330#5 -152330#4 -152330#3 -152330#2 -152330#1 -152330#0 153637 152405 -153007#6 -153456#6 -153456#5 -153456#4 -153456#3 -153456#2 -153456#1 -153456#0 -153451#4 -153451#3 -153451#2 -153451#1 -153451#0 -153452#1 -153452#0"/>
    </vehicle>
    <vehicle id="commercial_1-2_91" type="commercial" depart="18007" departLane="best" arrivalPos="random">
        <route edges="-153404#0 -152707#0 -152706#1 -152706#0 -152999 -152997 -153413#16 -153413#15 -153413#14 153415#0 153415#1 153331#0 153331#1 153331#2 153331#4 153331#5 153331#6 153331#7 153331#8 153331#9 153331#10 153331#11 153329#4 153329#5 153412#5 152251 153385#0 153385#1 152250 153383#0 -153386 152176#1 152176#2 152177 153384#0 153384#1 153384#2 152628#1 -153387#2 -153387#1 -153392#1 -153391#1 -153391#0 152736#0 152736#1 152736#2 -152734#0 -153424#0 -153433#0"/>
    </vehicle>
    <vehicle id="commercial_3-1_319" type="commercial" depart="18007" departLane="best" arrivalPos="random">
        <route edges="-153394#3 -153394#2 -153394#1 -153394#0 -152413#2 -152413#1 -152413#0 152412 152444#1 -153435#3 -153435#2 -153435#1 -153435#0 153451#6 153451#7 153433#1 152734#0 -152736#2 -152736#1 -152736#0 153391#0 153391#1 153392#1 153387#1 153387#2 -152628#1 -152628#0 -153384#1 -153384#0 -152177 -152176#2 -152176#1 -152176#0 -153383#0 -152250 -153385#1 -153385#0 -152251 -153412#5 -153329#5 -153329#4 -153329#3 -153329#2 -153329#1 -153329#0 152933#3 -153399#1 -153399#0 153413#0 153413#1 153413#3 153413#4"/>
    </vehicle>
    <vehicle id="commercial_1-3_191" type="commercial" depart="18008" departLane="best" arrivalPos="random">
        <route edges="-152777 152384 152816#0 152816#1 152816#2 152816#3 152831#0 152831#1 152831#2 152305 152312#0 152312#1 152312#2 -152309 152318#1 152318#2 -152308 152281 152530 -152330#5 -152330#4 -152330#3 -152330#2 -152330#1 -152330#0 153637 152405 -153007#6 -153456#6 -153456#5 -153456#4 -153456#3 -153456#2 -153456#1 -153456#0 153451#5 153435#0 153435#1 153435#2 153435#3 152416#1 152413#0 152413#1 152413#2 153394#0 153394#1 153394#2 153394#3 152427"/>
    </vehicle>
    <vehicle id="commercial_1-1_424" type="commercial" depart="18022" departLane="best" arrivalPos="random">
        <route edges="152859 152773 152772 -152763 152776 152817#0 152817#1 152817#2 152817#3 152959#5 152779 152818#0 152818#1 152818#2 152818#3 152816#0 152816#1 152816#2 152816#3 152816#4 152816#5 -152810#2 -152810#1 -152810#0 152775#0 152775#2 152775#3 152775#4 152775#5 -152702#1 -152702#0 152667#1 152667#2 152667#3 152667#4 152667#5 152667#6 152667#7 152667#8 152667#9 152667#10 152667#11 152605#1 152605#2 152169 152223 152453 152454#1 -152582#4 -152582#3 -152582#2 -152582#1 -152349 152582#2 152582#3"/>
    </vehicle>
    <vehicle id="commercial_1-3_139" type="commercial" depart="18038" departLane="best" arrivalPos="random">
        <route edges="-152766#0 152960#7 152960#8 152960#10 152959#2 152959#3 -152821#2 -152821#1 -152821#0 152137#6 152137#7 152137#0 152138 152968 -152270 -152418 -152958 153476#1 153476#2 153476#3 153476#5 153476#6 153476#7 153476#8 153476#9 153476#10 153476#11 153476#12 153476#13 153476#14 153476#15 153476#16 153476#17 153476#18 153476#19 153476#20 153476#22 153476#23 153476#24 153476#25 153476#26 -152303 -153342 -152302 -153477#1 -153477#0 -152257 -152927 -152304 -153478 153478 152304 152927"/>
    </vehicle>
    <vehicle id="commercial_GW1-1_141" type="commercial" depart="18038" departLane="best" arrivalPos="random">
        <route edges="152525#0 152525#0-AddedOffRampEdge 152529 152280 152532 152204 152326 152203 152328#0 152328#1 152288 152855 152210 152536 152394 153641 152330#0 152330#1 152330#2 152330#3 152330#4 152330#5 152166 152168#0 152168#1 152399#1 152399#2 152901#0 152901#1 152988 152814#0 152814#1 152814#2 152814#3 152814#4 152814#5 152814#6 152814#7 152814#8 152814#9 152814#10 152814#11 152759 152230 152785#0 152819 152944#2 152234 152701#0 152701#1 152701#2 152701#3 152701#4 152701#5 152703 152704 152657#0 152657#1 152657#2 -152677#5 -152677#4"/>
    </vehicle>
    <vehicle id="commercial_2-1_379" type="commercial" depart="18054" departLane="best" arrivalPos="random">
        <route edges="152606#8 152606#9 152513#1 152353#4 152353#1 152353#2 152354#0 152354#1 -152652#0 152667#11 152605#1"/>
    </vehicle>
    <vehicle id="commercial_2-1_383" type="commercial" depart="18055" departLane="best" arrivalPos="random">
        <route edges="-153404#1 -153404#0 -152707#0 152706#2 152706#3 152701#3 152701#4 152701#5 152703 152704 152667#1 152667#2 152667#3 152667#4 152667#5 152667#6 152667#7 152667#8 152667#9 152667#10 152667#11 152605#1 152605#2 152602 -152170#1 -152170#0 -152224 152587#0 152587#1 152613 -152613 -152587#1"/>
    </vehicle>
    <vehicle id="commercial_1-GW2_264" type="commercial" depart="18059" departLane="best" arrivalPos="random">
        <route edges="152760 -152774 152773 152772 -152763 152776 152817#0 152817#1 152817#2 152817#3 152959#5 152959#1 152959#2 152959#3 -152821#2 -152821#1 -152821#0 152137#6 152137#7 -152139 152318#4 152318#1 152318#2 -152308 152281 152530 -152330#5 -152330#4 -152330#3 -152330#2 -152330#1 -152330#0 153637 153634#1 153636#1 153002#0 153002#1 -153458#1 -153458#0 -153459#0 -152256 153460"/>
    </vehicle>
    <vehicle id="commercial_GW1-1_246" type="commercial" depart="18091" departLane="best" arrivalPos="random">
        <route edges="153478 152304 152927 152257 153477#0 153477#1 152302 153342 152303 -153476#26 -153476#25 -153476#24 -153476#23 -153476#22 -153476#20 -153476#19 -153476#18 -153476#17 -153476#16 -153476#15 -153476#14 -153476#13 -153476#12 -153476#11 -153476#10 -153476#9 -153476#8 -153476#7 -153476#6 -153476#5 -153476#3 -153476#2 -153476#1 -153476#0 152418 152270 152419#0 152419#1 152308 152318#3 152318#4 152309 152312#3 -152305 -152831#2 -152831#1 -152831#0 152816#4 152816#5 152787#0 152787#1 152420 -153548#0"/>
    </vehicle>
    <vehicle id="commercial_1-1_504" type="commercial" depart="18107" departLane="best" arrivalPos="random">
        <route edges="-152400 -152132 152418 152270 152419#0 152419#1 152308 152318#3 152318#4 152309 152312#3 -152305 -152831#2 -152831#1 -152831#0 152816#4 152816#5 -152810#2 -152810#1 -152810#0 152775#0 152775#2 152775#3 152775#4 152775#5 -152702#1 -152702#0 152667#1 152667#2 152667#3 152667#4 152667#5 152667#6 152667#7 152667#8 152667#9 152667#10 152652#0 152652#1 -152354#0 152353#3 -152513#1 -152606#9 -152606#8"/>
    </vehicle>
    <vehicle id="commercial_GW1-1_349" type="commercial" depart="18125" departLane="best" arrivalPos="random">
        <route edges="152525#0 152525#0-AddedOffRampEdge 152529 152280 152532 152204 152326 152203 152328#0 152328#1 152288 152855 152210 152536 152394 153641 152330#0 152330#1 152330#2 152330#3 152330#4 152330#5 152166 152168#0 152168#1 152399#1 152399#2 152901#0 152901#1 152320 152403 152538#0 152538#1 152137#2 152137#3 152137#4 152137#5 152821#0 152821#1 152821#2 152959#4 -152817#3 -152817#2 -152817#1 -152817#0 -152776 152860"/>
    </vehicle>
    <vehicle id="commercial_2-1_350" type="commercial" depart="18133" departLane="best" arrivalPos="random">
        <route edges="-152957 -152283 152554 153656 152283 -152555 -153357#2 -153354#2 -153354#1 -153354#0 -153359#1 -153359#0 -153323#4 -153323#3 -153323#2 -153323#1 -153323#0 -153365#4 -153365#3 -153365#1 -153365#0 152346#1 152221 152585#1 152350 152582#0 152582#1 152582#2 152582#3 152582#4 152454#2 152454#3 152454#4 -152453 -152223 -152169 -152605#2 -152605#1 -152605#0 -152667#10 -152667#9 -152667#8 -152667#7 -152667#6 -152667#5 -152667#4 152714 152174#0 152174#1 -152701#5 -152701#4 -152701#3 152780"/>
    </vehicle>
    <vehicle id="commercial_1-3_100" type="commercial" depart="18135" departLane="best" arrivalPos="random">
        <route edges="152593 152590#2 -152582#1 -152582#0 152576 152219 152346#1 152221 -153480#7 -153480#6 -153480#5 -153480#4 -153480#3 -153480#2 -153480#1 -153480#0 153372#2 153372#3 153372#4 -152307 -152565 -152245 -153369#1 -153369#0 152246 -153383#5 -153383#4 -153383#3 -153383#2 -153383#1 -153386 152176#1 152176#2 152177 153384#0 153384#1 153384#2 152628#1 -153387#2 -153387#1 -153392#1 -153391#1 -153391#0 152736#0 152736#1 152736#2 -152734#0 -153424#0 -153433#0 -153451#6 153435#0 153435#1 153435#2 153435#3 152416#1 152413#0 152413#1 152413#2 152413#3 152252 153395 152253 -153436"/>
    </vehicle>
    <vehicle id="commercial_1-1_367" type="commercial" depart="18144" departLane="best" arrivalPos="random">
        <route edges="-152398#3 -152398#2 -152398#1 -152398#0 152458#3 -152451 152874#1 152874#2 153638 152297#0 152297#0-AddedOffRampEdge 152297#1 152967 152816#2 152816#3 152816#4 152816#5 -152810#2 -152810#1 -152810#0 152775#0 152775#2 152775#3 152775#4 152775#5 -152702#1 -152702#0 152667#1 152667#2 152667#3 152667#4 152667#5 152667#6 152667#7 152667#8 152667#9 152667#10 152667#11 152605#1 152605#2 152169 152223 152453 152454#1 -152582#4 -152582#3 -152582#2 -152582#1 -152349 152582#2 152582#3 152582#4"/>
    </vehicle>
    <vehicle id="commercial_1-3_157" type="commercial" depart="18157" departLane="best" arrivalPos="random">
        <route edges="-153329#3 -153329#2 -153329#1 -153329#0 152933#3 -153399#1 -153399#0 152649#0 152649#1 152649#2 152649#3 152649#4 152649#5 153406#0 153406#1 153406#2 152940 152684 152174#1 -152701#5 -152701#4 -152701#3 -152701#2 -152701#1 -152701#0 152229 152943#0 152943#1 -152814#11 -152814#10 -152814#9 -152814#8 -152814#7 -152814#6 -152814#5 -152814#4 -152814#3 -152814#2 -152814#1 -152814#0 152989 -152901#1 -152901#0 152399#3 152399#0 -152168#1 -152168#0 -152166 -152330#5 -152330#4 -152330#3 -152330#2 -152330#1 -152330#0 153637 153634#1 153636#1 153002#0 153002#1 -153458#1 -153458#0 -153457"/>
    </vehicle>
    <vehicle id="commercial_1-1_96" type="commercial" depart="18158" departLane="best" arrivalPos="random">
        <route edges="152605#1 152605#2 152169 152223 152453 152454#1 152454#2 152454#3 152454#4 -152453 -152223 -152169 -152605#2 -152605#1 -152605#0 -152667#10 -152667#9 -152667#8 -152667#7 -152667#6 -152667#5 -152667#4 152714 152174#0 152174#1 -152701#5 -152701#4 -152701#3 -152701#2 -152701#1 -152701#0 152229 152943#0 152943#1"/>
    </vehicle>
    <vehicle id="commercial_GW2-1_189" type="commercial" depart="18177" departLane="best" arrivalPos="random">
        <route edges="153656 152283 -152555 -153357#2 -153354#2 -153354#1 -153354#0 -153359#1 -153359#0 -153323#4 -153323#3 -153323#2 -153323#1 -153323#0 -153365#4 -153365#3 -153365#1 -153365#0 152346#1 152221 152585#1 152350 152582#0 152582#1 -152590#2 -152590#1 -152589 -152284 152594 -152941#3 -152941#2 -152941#1 -152941#0 152965#0"/>
    </vehicle>
    <vehicle id="commercial_1-2_319" type="commercial" depart="18186" departLane="best" arrivalPos="random">
        <route edges="-152766#0 152960#7 152960#8 -153273#2 -153273#1 -152135#1 -152135#0 152802 152818#1 152818#2 152818#3 152816#0 152816#1 152816#2 152816#3 152816#4 152816#5 -152810#2 -152810#1 -152810#0 152775#0 -152381 -152716 -152767#3 -152767#2 -152780 -152706#3 -152706#2 -152706#1 -152706#0 -152999 -152997 -153413#16 -153413#15 -153413#14 153415#0 153415#1 153331#0 153331#1 153331#2 153331#4 153331#5 153331#6 153331#7 153331#8 153331#9 153331#10 153331#11 153329#4 153329#5 -153412#4 -153412#3 -153420#7 -153420#6 -153420#5 -153420#4 -153420#3 -152687 -152719 152629"/>
    </vehicle>
    <vehicle id="commercial_GW1-1_74" type="commercial" depart="18189" departLane="best" arrivalPos="random">
        <route edges="153478 152304 152927 152257 153477#0 153477#1 152302 153342 152303 -153476#26 -153476#25 -153476#24 -153476#23 -153476#22 -153476#20 -153476#19 -153476#18 -153476#17 -153476#16 -153476#15 -153476#14 -153476#13 -153476#12 -153476#11 -153476#10 -153476#9 -153476#8 -153476#7 -153476#6 -153476#5 -153476#3 -153476#2 -153476#1 -153476#0 152418 152270 152419#0 152419#1 152308 152318#3 152318#4 152309 152312#3 -152305 -152831#2 -152831#1 -152831#0 152816#4 152816#5 -152810#2 -152810#1 -152804 152939#1 152939#2 152939#4 152939#5 -152775#5 -152775#4 -152775#3"/>
    </vehicle>
    <vehicle id="commercial_1-3_0" type="commercial" depart="18195" departLane="best" arrivalPos="random">
        <route edges="-152667#3 -152667#2 -152667#1 152702#0 152702#1 -152775#5 -152775#4 -152775#3 -152775#2 -152775#0 152810#0 152810#1 152810#2 152820 152960#1 152960#2 152960#3 152960#4 152305 152312#0 152312#1 152312#2 -152309 152318#1 152318#2 -152308 152281 152530 -152330#5 -152330#4 -152330#3 -152330#2 -152330#1 -152330#0 153637 152405 -153007#6 -153456#6 -153456#5 -153456#4 -153456#3 -153456#2 -153456#1 -153456#0 153451#5 153435#0 153435#1 153435#2 153435#3 152416#1 152413#0 152413#1 152413#2 152413#3 152252 153395 152253 -153436"/>
    </vehicle>
    <vehicle id="commercial_1-GW1_148" type="commercial" depart="18195" departLane="best" arrivalPos="random">
        <route edges="153556 153554#3 152999 152706#0 152706#1 152706#2 152706#3 -152701#2 -152701#1 -152701#0 152229 152943#0 152793 152785#2 152167 152969#0 152969#1 152969#2 152969#3 -152795#1 152824#0 152824#1 152137#7 152137#0 152138 152968 -152270 -152418 -152958 153476#1 153476#2 153476#3 153476#5 153476#6 153476#7 153476#8 153476#9 153476#10 153476#11 153476#12 153476#13 153476#14 153476#15 153476#16 153476#17 153476#18 153476#19 153476#20 153476#22 153476#23 153476#24 153476#25 153476#26 -152303 -153342 -152302 -153477#1 -153477#0 -152257 -152927 -152304 -153478"/>
    </vehicle>
    <vehicle id="commercial_GW1-1_188" type="commercial" depart="18212" departLane="best" arrivalPos="random">
        <route edges="153478 152304 152927 152257 153477#0 153477#1 152302 153342 152303 -153476#26 -153476#25 -153476#24 -153476#23 -153476#22 -153476#20 -153476#19 -153476#18 -153476#17 -153476#16 -153476#15 -153476#14 -153476#13 -153476#12 -153476#11 -153476#10 153008#0 153008#1 153008#2 153008#3 153008#4 153008#5 153008#6 153008#7 152402#2 152402#3 152899#0 152899#1 152899#2 -152870#4 -152870#3 -152870#2 -152870#1 -152870#0 153552#3 153552#0 153552#1 153552#2"/>
    </vehicle>
    <vehicle id="commercial_1-GW1_202" type="commercial" depart="18215" departLane="best" arrivalPos="random">
        <route edges="-152590#2 -152593 152593 152590#2 152582#2 152582#3 152582#4 152454#2 152454#3 152454#4 -152453 -152223 -152169 -152605#2 -152605#1 -152605#0 -152667#10 -152667#9 -152667#8 -152667#7 -152667#6 -152667#5 -152667#4 -152667#3 -152667#2 -152667#1 152702#0 152702#1 -152775#5 -152775#4 -152775#3 -152775#2 -152775#0 152810#0 152810#1 152810#2 152820 152960#1 152960#2 152960#3 152960#4 152305 152312#0 152312#1 152312#2 -152309 152318#1 152318#2 152318#3 152139 152137#0 152138 152968 -152270 -152418 -152958 153476#1 153476#2 153476#3 153476#5 153476#6 153476#7 153476#8 153476#9 153476#10 153476#11 153476#12 153476#13 153476#14 153476#15 153476#16 153476#17 153476#18 153476#19 153476#20 153476#22 153476#23 153476#24 153476#25 153476#26 -152303 -153342 -152302 -153477#1 -153477#0 -152257 -152927 -152304 -153478"/>
    </vehicle>
    <vehicle id="commercial_2-1_364" type="commercial" depart="18217" departLane="best" arrivalPos="random">
        <route edges="153404#7 153404#8 153003#0 153003#1 153004 -152971#5 -152971#4 -152971#3 -152971#2 -152971#1 -152971#0 152708#1 152706#3 152701#3 152701#4 152701#5 152703 152704 152667#1 152667#2 152667#3 152667#4"/>
    </vehicle>
    <vehicle id="commercial_1-3_283" type="commercial" depart="18217" departLane="best" arrivalPos="random">
        <route edges="153401 152647#2 153405#0 153405#1 153405#2 153405#3 153406#0 153406#1 153406#2 152940 152684 152174#1 -152701#5 -152701#4 -152701#3 -152701#2 -152701#1 -152701#0 152229 152943#0 152943#1 -152814#11 -152814#10 -152814#9 -152814#8 -152814#7 -152814#6 -152814#5 -152814#4 -152814#3 -152814#2 -152814#1 -152814#0 152989 -152901#1 -152901#0 152399#3 152399#0 -152168#1 -152168#0 -152166 -152330#5 -152330#4 -152330#3 -152330#2 -152330#1 -152330#0 153637 153634#1 153636#1 153002#0 153002#1 -153458#1 152903"/>
    </vehicle>
    <vehicle id="commercial_1-3_312" type="commercial" depart="18219" departLane="best" arrivalPos="random">
        <route edges="-152398#3 -152398#2 152646 -152298 -152873#3 -152873#2 -152873#1 -152873#0 152983 152982#3 152982#4 152973 -152895#1 153476#1 153476#2 153476#3 153476#5 153476#6 153476#7 153476#8 153476#9 153476#10 153476#11 153476#12 153476#13 153476#14 153476#15 153476#16 153476#17 153476#18 153476#19 153476#20 153476#22 153476#23 153476#24 153476#25 153476#26 -152303 -153342 -152302 -153477#1 -152903"/>
    </vehicle>
    <vehicle id="commercial_2-1_224" type="commercial" depart="18220" departLane="best" arrivalPos="random">
        <route edges="-153374#1 -153374#0 -152215 -152566#1 -152566#0 153369#1 152245 152565 152307 -153372#4 -153372#3 -153372#2 153480#0 153480#1 153480#2 153480#3 153480#4 153480#5 153480#6 153480#7 152585#1 152350 152582#0 152582#1 152582#2 152582#3 152582#4"/>
    </vehicle>
    <vehicle id="commercial_1-GW2_90" type="commercial" depart="18225" departLane="best" arrivalPos="random">
        <route edges="152667#9 152667#10 152652#0 152364 -152364 -152652#0 -152667#10 -152667#9 -152667#8 -152667#7 -152667#6 -152667#5 -152667#4 -152667#3 -152667#2 -152667#1 152702#0 152702#1 -152775#5 -152775#4 -152775#3 -152775#2 -152775#0 152810#0 152810#1 152810#2 152820 152960#1 152960#2 152960#3 152960#4 152305 152312#0 152312#1 152312#2 -152309 152318#1 152318#2 -152308 152281 152530 -152330#5 -152330#4 -152330#3 -152330#2 -152330#1 -152330#0 153637 152405 -153007#6 -153456#6 -153456#5 -153456#4 -153456#3 -153456#2 -153456#1 -153456#0 -153451#4 -153451#3 -153451#2 -153451#1 -153451#0 -153452#1 -153452#0"/>
    </vehicle>
    <vehicle id="commercial_3-1_207" type="commercial" depart="18235" departLane="best" arrivalPos="random">
        <route edges="153457 153459#1 153458#1 153005#0 153005#1 152235 153338 153641 152330#0 152330#1 152330#2 152330#3 152330#4 152330#5 152166 152168#0 152168#1 152399#1 152399#2 152901#0 152901#1 152320 152403 152132 152421 152895#2 152982#0 152982#1 152982#2 152982#3 -152900#1 -152887#2 -152887#1 -152887#0 152898#0 152898#1 152898#2"/>
    </vehicle>
    <vehicle id="commercial_GW1-1_34" type="commercial" depart="18249" departLane="best" arrivalPos="random">
        <route edges="153478 152304 152927 152257 153477#0 153477#1 152302 153342 152303 -153476#26 -153476#25 -153476#24 -153476#23 -153476#22 -153476#20 -153476#19 -153476#18 -153476#17 -153476#16 -153476#15 -153476#14 -153476#13 -153476#12 -153476#11 -153476#10 -153476#9 -153476#8 -153476#7 -153476#6 -153476#5 -153476#3 -153476#2 -153476#1 -153476#0 152418 152270 152419#0 152419#1 152308 152318#3 152318#4 152309 152312#3 -152305 -152831#2 -152831#1 -152831#0 152816#4 152816#5 -152810#2 -152810#1 -152810#0 152775#0 152775#2 152775#3 152775#4 152775#5 -152702#1 -152702#0 152667#1 152667#2 152667#3 152667#4 152667#5 152667#6 152667#7 152667#8 152667#9 152667#10 152667#11 152605#1 152605#2 152169 152223 152453 152454#1 152454#2 152454#3"/>
    </vehicle>
    <vehicle id="commercial_1-GW1_278" type="commercial" depart="18253" departLane="best" arrivalPos="random">
        <route edges="-152795#1 152824#0 152824#1 152137#7 152137#0 152138 152968 -152270 -152418 -152958 153476#1 153476#2 153476#3 153476#5 153476#6 153476#7 153476#8 153476#9 153476#10 153476#11 153476#12 153476#13 153476#14 153476#15 153476#16 153476#17 153476#18 153476#19 153476#20 153476#22 153476#23 153476#24 153476#25 153476#26 -152303 -153342 -152302 -153477#1 -153477#0 -152257 -152927 -152304 -153478"/>
    </vehicle>
    <vehicle id="commercial_1-GW1_246" type="commercial" depart="18258" departLane="best" arrivalPos="random">
        <route edges="152350 152582#0 152582#1 152582#2 152582#3 152582#4 152454#2 152454#3 152454#4 -152453 -152223 -152169 -152605#2 -152605#1 -152605#0 -152667#10 -152667#9 -152667#8 -152667#7 -152667#6 -152667#5 -152667#4 -152667#3 -152667#2 -152667#1 152702#0 152702#1 -152775#5 -152775#4 -152775#3 -152775#2 -152775#0 152810#0 152810#1 152810#2 152820 152960#1 152960#2 152960#3 152960#4 152305 152312#0 152312#1 152312#2 -152309 152318#1 152318#2 152318#3 152139 152137#0 152138 152968 -152270 -152418 -152958 153476#1 153476#2 153476#3 153476#5 153476#6 153476#7 153476#8 153476#9 153476#10 153476#11 153476#12 153476#13 153476#14 153476#15 153476#16 153476#17 153476#18 153476#19 153476#20 153476#22 153476#23 153476#24 153476#25 153476#26 -152303 -153342 -152302 -153477#1 -153477#0 -152257 -152927 -152304 -153478"/>
    </vehicle>
    <vehicle id="commercial_1-3_101" type="commercial" depart="18265" departLane="best" arrivalPos="random">
        <route edges="-152775#3 -152775#2 -152775#0 152810#0 152810#1 152810#2 152820 152960#1 152960#2 152960#3 152960#4 152305 152312#0 152312#1 152312#2 -152309 152318#1 152318#2 -152308 152281 152530 -152330#5 -152330#4 -152330#3 -152330#2 -152330#1 -152330#0 153637 153634#1 153636#1 153002#0 153002#1 -153458#1 -153458#0 -153459#0 -152256 153460 -153460 152256 153459#0 153459#1"/>
    </vehicle>
    <vehicle id="commercial_GW1-1_367" type="commercial" depart="18266" departLane="best" arrivalPos="random">
        <route edges="153478 152304 152927 152257 153477#0 153477#1 152302 153342 152303 -153476#26 -153476#25 -153476#24 -153476#23 -153476#22 -153476#20 -153476#19 -153476#18 -153476#17 -153476#16 -153476#15 -153476#14 -153476#13 -153476#12 -153476#11 -153476#10 -153476#9 -153476#8 -153476#7 -153476#6 -153476#5 -153476#3 -153476#2 -153476#1 -153476#0 152418 152270 152419#0 152419#1 152308 152318#3 152318#4 152309 152312#3 -152305 152960#5 152960#6 152960#7 152960#8 -153273#2 -153273#1 -153273#0 152134"/>
    </vehicle>
    <vehicle id="commercial_1-1_540" type="commercial" depart="18293" departLane="best" arrivalPos="random">
        <route edges="-153413#14 153415#0 152682#1 152682#2 -152682#2 -152682#1 -153415#0 153413#14 153413#15 153413#16 152997 152999 152706#0 152706#1 152706#2 152706#3 -152701#2 -152701#1 -152701#0 152229 152943#0 152793 152785#2 152167 152969#0 152969#1 152969#2 152969#3 -152795#1 152808 152959#3 152959#4 -152817#3 -152817#2 -152817#1 -152817#0 -152776 152860 152862 -152889 152885 152884#0 152884#1 152881 152882 152942 152880#1 152880#2 152877 152869 152863 152868"/>
    </vehicle>
    <vehicle id="commercial_GW1-1_339" type="commercial" depart="18299" departLane="best" arrivalPos="random">
        <route edges="-153478 153478 152304 152927 152257 153477#0 153477#1 152302 153342 152303 -153476#26 -153476#25 -153476#24 -153476#23 -153476#22 -153476#20 -153476#19 -153476#18 -153476#17 -153476#16 -153476#15 -153476#14 -153476#13 -153476#12 -153476#11 -153476#10 153008#0 153008#1 153008#2 153008#3 153008#4 153008#5 153008#6 153008#7 152402#2 152402#3 152899#0 152899#1 152899#2 -152870#4 -152870#3 -152870#2 -152870#1 -152870#0 153552#3 153552#0 152945#0 152945#1 152945#2 152814#11 152759 152230 152785#0 152819 152944#2 152234 152701#0 152701#1 152701#2 -152706#3 -152706#2 -152706#1 -152706#0 -152999 -152997 -153413#16 -153413#15 -153413#14 -153413#13 -153413#12 -153413#11 -153413#10 -153413#9 -153413#8 -153413#7 -153413#6 -153413#5 -153413#4 -153413#3 -153413#1 -153413#0 153399#0 -152996#8 -152996#7 -152996#6"/>
    </vehicle>
    <vehicle id="commercial_1-1_356" type="commercial" depart="18309" departLane="best" arrivalPos="random">
        <route edges="152767#0 152767#1 -152780 -152701#2 -152701#1 -152701#0 152229 152943#0 152793 152785#2 152167 152969#0"/>
    </vehicle>
    <vehicle id="commercial_2-1_78" type="commercial" depart="18323" departLane="best" arrivalPos="random">
        <route edges="152591#3 152591#4 152591#5 152933#2 152933#3 -153399#1 -153399#0 152649#0 152649#1 152649#2 152649#3 152649#4 152649#5 153406#0 153406#1 153406#2 152940 152684 152174#1 -152701#5 -152701#4 -152701#3 -152701#2 -152701#1 -152701#0 152229 152943#0 152793 152785#2 152167 152969#0 152969#1 152969#2 152969#3 152987#0 152987#1 152987#2 -152987#2 -152987#1 -152987#0 -152969#3 -152969#2 -152969#1 -152969#0"/>
    </vehicle>
    <vehicle id="commercial_1-2_156" type="commercial" depart="18335" departLane="best" arrivalPos="random">
        <route edges="-152766#0 152960#7 152960#8 152960#10 152959#2 152959#3 -152821#2 -152821#1 -152821#0 152137#6 152137#7 -152139 152318#4 152318#1 152318#2 -152308 152281 152530 -152330#5 -152330#4 -152330#3 -152330#2 -152330#1 -153479#11 -153479#9 -153479#8 -153479#7"/>
    </vehicle>
    <vehicle id="commercial_1-1_6" type="commercial" depart="18349" departLane="best" arrivalPos="random">
        <route edges="-152896 152814#2 152814#3 152814#4 152814#5 152814#6 152814#7 152814#8 152814#9 152814#10 152814#11 152759 152230 152785#0 152785#1 152785#2 152167 152969#0 152969#1 152969#2 152969#3 -152795#1 152808 152959#3 152959#4 152959#5 152779 152818#0 152818#1 152818#2 152818#3 152388#0 152388#1 152777 152382 152771 -152769 152946 -152777"/>
    </vehicle>
    <vehicle id="commercial_GW1-1_73" type="commercial" depart="18376" departLane="best" arrivalPos="random">
        <route edges="152272 152517 152208 152516#0 152526 152559 152512#3 152512#4 153381#0 153381#1 153381#2 153381#3 153381#4 153381#5 153381#6 153381#7 -153383#1 -153383#0 -152250 -153385#1 -153385#0 -152251 -153412#5 -153329#5 -153329#4 -153329#3 -153329#2 -153329#1 -153329#0 152933#3 -153399#1 -153399#0 152649#0 152649#1 152649#2 152649#3 152649#4 152649#5 153406#0 153406#1 153406#2 152679 152678 152542"/>
    </vehicle>
    <vehicle id="commercial_2-1_159" type="commercial" depart="18378" departLane="best" arrivalPos="random">
        <route edges="153410#5 153410#6 153410#7 153410#8 153410#9 -153331#2 -153331#1 -153331#0 -153415#1 -153415#0 153413#14 153413#15 153413#16 152997 152999 152706#0 152706#1 152706#2 152706#3 -152701#2 -152701#1 -152701#0 152229 152943#0 152793 152785#2 152167 152969#0 152969#1 152969#2 152969#3 152987#0 152987#1 152832#0 152832#1 152832#2 152832#3 152823#0 152823#1"/>
    </vehicle>
    <vehicle id="commercial_1-GW1_315" type="commercial" depart="18388" departLane="best" arrivalPos="random">
        <route edges="152783#1 -152386#1 152831#1 152831#2 152305 152312#0 152312#1 152312#2 -152309 152318#1 152318#2 152318#3 152139 152137#0 152138 152968 -152270 -152418 -152958 153476#1 153476#2 153476#3 153476#5 153476#6 153476#7 153476#8 153476#9 153476#10 153476#11 153476#12 153476#13 153476#14 153476#15 153476#16 153476#17 153476#18 153476#19 153476#20 153476#22 153476#23 153476#24 153476#25 153476#26 -152303 -153342 -152302 -153477#1 -153477#0 -152257 -152927 -152304 -153478"/>
    </vehicle>
    <vehicle id="commercial_1-2_110" type="commercial" depart="18409" departLane="best" arrivalPos="random">
        <route edges="152281 152530 -152330#5 -152330#4 -152330#3 -152330#2 -152330#1 -152330#0 -152409#3 -153454#1"/>
    </vehicle>
    <vehicle id="commercial_1-2_175" type="commercial" depart="18410" departLane="best" arrivalPos="random">
        <route edges="-152386#0 152811 152816#5 -152810#2 -152810#1 -152810#0 152775#0 152775#2 152775#3 152775#4 152775#5 -152702#1 -152702#0 152667#1 152667#2 152667#3 152667#4 152667#5 152667#6 152667#7 152667#8 152667#9 152667#10 152667#11 152605#1 152605#2 152169 152223 152453 152454#1 152454#2 152454#3 152606#0 152606#1"/>
    </vehicle>
    <vehicle id="commercial_GW2-1_91" type="commercial" depart="18413" departLane="best" arrivalPos="random">
        <route edges="-153460 152256 153459#0 153459#1 153458#1 153005#0 153005#1 152235 153338 153641 152330#0 152330#1 152330#2 152330#3 152330#4 152330#5 152166 152168#0 152168#1 152399#1 152399#2 152901#0 152901#1 152988 152814#0 152814#1 152814#2 152814#3 152814#4 152814#5 152814#6 152814#7 152814#8 152814#9 152814#10 152814#11 152759 152230 152785#0 152819 152944#2 152234 152701#0 152701#1 152701#2 152701#3 152701#4 152701#5 152703 152704 152657#0 152657#1 152657#2 -152677#5 -152677#4 152676#0 152676#1 152676#2 152472#0"/>
    </vehicle>
    <vehicle id="commercial_1-1_506" type="commercial" depart="18417" departLane="best" arrivalPos="random">
        <route edges="152859 152773 152772 -152763 152776 152817#0 152817#1 152817#2 152817#3 152959#5 152959#1 152959#2 152959#3 -152821#2 -152821#1 -152821#0 152137#6 152137#7 152137#0 152138 152968 -152270 -152418 -152958 152895#1 152895#2 152982#0 152982#1 152982#2 -152983 -152886#1"/>
    </vehicle>
    <vehicle id="commercial_1-1_462" type="commercial" depart="18427" departLane="best" arrivalPos="random">
        <route edges="152767#0 152767#1 -152780 -152701#2 -152701#1 -152701#0 152229 152943#0 152943#1 -152814#11 -152814#10 -152814#9 -152814#8 -152814#7 -152814#6"/>
    </vehicle>
    <vehicle id="commercial_GW2-1_50" type="commercial" depart="18434" departLane="best" arrivalPos="random">