<?xml version="1.0" encoding="UTF-8"?>

<!--
    Monaco SUMO Traffic (MoST) Scenario
    Copyright (C) 2019
    Lara CODECA

    This program is free software: you can redistribute it and/or modify
    it under the terms of the GNU General Public License as published by
    the Free Software Foundation, either version 3 of the License, or
    (at your option) any later version.

    This program is distributed in the hope that it will be useful,
    but WITHOUT ANY WARRANTY; without even the implied warranty of
    MERCHANTABILITY or FITNESS FOR A PARTICULAR PURPOSE.  See the
    GNU General Public License for more details.

    You should have received a copy of the GNU General Public License
    along with this program.  If not, see <http://www.gnu.org/licenses/>.
-->

<routes xmlns:xsi="http://www.w3.org/2001/XMLSchema-instance" xsi:noNamespaceSchemaLocation="http://sumo.dlr.de/xsd/routes_file.xsd"> 
    <vehicle id="commercial_1-1_547" type="commercial" depart="18002" departLane="best" arrivalPos="random">
        <route edges="-152882#1 -152882#0 152971#4 152971#1 -153556 152894#0 152894#1 152894#2 -152295 152853 152133#3 152133#4 152133#5 152817#0 152817#1 152817#2 152955#4 -152813#3 -152813#2 -152813#1 -152813#0 -152772 152856 152858 -152885"/>
    </vehicle>
    <vehicle id="commercial_1-1_349" type="commercial" depart="18020" departLane="best" arrivalPos="random">
        <route edges="152965#1 152965#2 152965#3 -152791#1 152820#0 152820#1 152133#7 -152135 152314#4 152305 152308#3 -152301 -152827#2 -152827#1 152382#1 152382#2 -152382#2"/>
    </vehicle>
    <vehicle id="commercial_1-1_101" type="commercial" depart="18025" departLane="best" arrivalPos="random">
        <route edges="153004#7 152398#2 152398#3 152895#0 152895#1 152895#2 -152866#4 -152828#6 -152828#5 -152828#4 -152828#3 -152828#2 -152828#1 -152828#0 -152983#1 -152983#0 -152965#3 -152965#2 -152965#1 -152965#0"/>
    </vehicle>
    <vehicle id="commercial_GW1-1_284" type="commercial" depart="18026" departLane="best" arrivalPos="random">
        <route edges="153474 152300 152923 152253 153473#0 153473#1 152298 153338 152299 -153472#26 -153472#25 -153472#24 -153472#23 -153472#22 -153472#20 -153472#19 -153472#18 -153472#17 -153472#16 -153472#15 -153472#14 -153472#13 -153472#12 -153472#11 -153472#10 -153472#9 -153472#8 -153472#7 -153472#6 -153472#5 -153472#3 -153472#2 -153472#1 -153472#0 152414 152266 152415#0 152415#1 152304 152314#3 152314#4 152305 152308#3 -152301 -152827#2 -152827#1 -152827#0 152812#4 152812#5 -152806#2 -152806#1 -152806#0 152771#0 152771#2 152771#3 152771#4 152771#5 -152698#1 -152684#2 -152684#1"/>
    </vehicle>
    <vehicle id="commercial_1-GW1_82" type="commercial" depart="18033" departLane="best" arrivalPos="random">
        <route edges="-152827#2 152827#2 152301 152308#0 152308#1 152308#2 -152305 152314#1 152314#2 152314#3 152135 152133#0 152134 152964 -152266 -152414 -152954 153472#1 153472#2 153472#3 153472#5 153472#6 153472#7 153472#8 153472#9 153472#10 153472#11 153472#12 153472#13 153472#14 153472#15 153472#16 153472#17 153472#18 153472#19 153472#20 153472#22 153472#23 153472#24 153472#25 153472#26 -152299 -153338 -152298 -153473#1 -153473#0 -152253 -152923 -152300 -153474"/>
    </vehicle>
    <vehicle id="commercial_1-GW1_195" type="commercial" depart="18043" departLane="best" arrivalPos="random">
        <route edges="152791#1 -152791#1 152820#0 152820#1 152133#7 152133#0 152134 152964 -152266 -152414 -152954 153472#1 153472#2 153472#3 153472#5 153472#6 153472#7 153472#8 153472#9 153472#10 153472#11 153472#12 153472#13 153472#14 153472#15 153472#16 153472#17 153472#18 153472#19 153472#20 153472#22 153472#23 153472#24 153472#25 153472#26 -152299 -153338 -152298 -153473#1 -153473#0 -152253 -152923 -152300 -153474"/>
    </vehicle>
    <vehicle id="commercial_1-1_251" type="commercial" depart="18046" departLane="best" arrivalPos="random">
        <route edges="152816 152956#1 152956#2 152956#3 152956#4 152301 152308#0 152308#1 152308#2 -152305 152314#1 152314#2 152314#3 152135 152133#0 152134 152964 152415#0 -152934#2 -152934#1 -152934#0 152398#3 152895#0 152895#1 152895#2 -152866#4 -152866#3 -152866#2 -152866#1 -152866#0"/>
    </vehicle>
    <vehicle id="commercial_3-1_280" type="commercial" depart="18073" departLane="best" arrivalPos="random">
        <route edges="152923 152253 153473#0 153473#1 152298 153338 152299 -153472#26 -153472#25 -153472#24 -153472#23 -153472#22 -153472#20 -153472#19 -153472#18 -153472#17 -153472#16 -153472#15 -153472#14 -153472#13 -153472#12 -153472#11 -153472#10 153004#0 153004#1 153004#2 153004#3 153004#4 153004#5 153004#6 153004#7 152398#2 152398#3 152895#0 152895#1 152895#2 -152866#4 -152866#3 -152866#2 -152866#1"/>
    </vehicle>
    <vehicle id="commercial_1-1_512" type="commercial" depart="18102" departLane="best" arrivalPos="random">
        <route edges="152285 152658 152650#2 152650#3 152650#4 152666#3 152666#4 152278 -152286 -152757 -152287 -152796 -152288 -152790 152289 152381 -152202 152457 152307 152308#2 -152305 152314#1 152313 -152894#2 -152894#1 -152894#0 153556 152971#2 152971#3 152882#0 152882#1 152869#0 152869#1 152869#2 152159#0"/>
    </vehicle>
    <vehicle id="commercial_3-1_366" type="commercial" depart="18143" departLane="best" arrivalPos="21.39107784894933">
        <route edges="-152409#3 -152409#2 -152409#1 -152409#0 152408 -152533 152924#4 152407 152527 152324#1 152284 152851 152206 152532 152390 153637 152326#0 152326#1 152326#2 152326#3 152326#4 152326#5 152162 -153002#3 -153002#2 -153002#1 -153002#0 -152895#1 -152895#0 152398#0 152398#1 152398#2 152934#0 152934#1 152934#2 152415#1 152304 152314#3 152314#4 152305 152308#3 -152301 -152827#2 -152827#1 -152827#0 152812#4 152812#5 152816"/>
        <stop parkingArea="1129" until="46731"/>
    </vehicle>
    <vehicle id="commercial_1-3_110" type="commercial" depart="18147" departLane="best" arrivalPos="random">
        <route edges="152286 -152286 -152757 -152287 -152796 -152288 -152790 152289 152381 -152202 152457 152307 152308#2 -152305 152314#1 152314#2 -152304 152277 152526 -152326#5 -152326#4 -152326#3 -152326#2 -152326#1 -152326#0 153633 153630#1 153632#1 152998#0 152998#1 -153454#1 -153454#0 -153455#0"/>
    </vehicle>
    <vehicle id="commercial_1-GW1_88" type="commercial" depart="18166" departLane="best" arrivalPos="random">
        <route edges="-152828#5 152828#5 152828#6 152866#4 152866#5 -152895#1 -152895#0 152398#0 152398#1 -153004#7 -153004#6 -153004#5 -153004#4 -153004#3 -153004#2 -153004#1 -153004#0 153472#10 153472#11 153472#12 153472#13 153472#14 153472#15 153472#16 153472#17 153472#18 153472#19 153472#20 153472#22 153472#23 153472#24 153472#25 153472#26 -152299 -153338 -152298 -153473#1 -153473#0 -152253 -152923 -152300 -153474"/>
    </vehicle>
    <vehicle id="commercial_1-2_326" type="commercial" depart="18175" departLane="best" arrivalPos="random">
        <route edges="-152602#2 -152613 -152606 -152601#2 -152601#1 -152601#0 -152663#10 -152663#9 -152663#8 -152663#7 -152663#6 -152663#5 -152663#4 152710 152170#0 152170#1 -152697#5 -152697#4 -152697#3 -152697#2 -152697#1 -152697#0 152225 152939#0 152939#1 -152810#11 -152941#2 -152941#1 -152941#0 153548#1 153548#2 152866#0 152866#1 152866#2 152866#3 152866#4 152866#5 -152895#1 -152895#0 152398#0 152898#0 152898#1"/>
    </vehicle>
    <vehicle id="commercial_1-2_167" type="commercial" depart="18191" departLane="best" arrivalPos="random">
        <route edges="152937#4 152280 152585 152586#1 152586#2 152578#2 152578#3 152578#4 152450#2 152450#3 152450#4 -152449 -152219 -152165 -152601#2 -152601#1 -152601#0 -152663#10 -152663#9 -152663#8 -152663#7 -152663#6 -152663#5 -152663#4 152710 152170#0 152170#1 -152697#5 -152697#4 -152697#3 -152702#3 -152702#2 -152702#1 -152702#0 -152995 -152993 -153409#16 -153409#15 -153409#14 153411#0 152678#1"/>
    </vehicle>
    <vehicle id="commercial_1-2_240" type="commercial" depart="18215" departLane="best" arrivalPos="random">
        <route edges="152809 -152810#8 -152808#5 -152808#4 -152808#3 -152808#2 -152808#1 -152808#0 -153437#0 -153441#1 -153441#0 -153400#8 -153400#7 153400#7"/>
    </vehicle>
    <vehicle id="commercial_1-1_105" type="commercial" depart="18217" departLane="best" arrivalPos="random">
        <route edges="152963 152812#2 152812#3 152812#4 152812#5 -152806#2 -152806#1 -152806#0 152771#0 152771#2 152771#3 152771#4 152771#5 -152698#1 -152698#0 152663#1 152663#2 152663#3 152663#4 152663#5 152663#6 152663#7 152663#8 152663#9 152663#10 152663#11 152601#1 152601#2 152165 152219 152449 152450#1 -152578#4 -152578#3 152578#3"/>
    </vehicle>
    <vehicle id="commercial_1-GW2_96" type="commercial" depart="18220" departLane="best" arrivalPos="random">
        <route edges="152783#1 -152783#1 -152783#0 152816 152956#1 152956#2 152956#3 152956#4 152301 152308#0 152308#1 152308#2 -152305 152314#1 152314#2 -152304 152277 152526 -152326#5 -152326#4 -152326#3 -152326#2 -152326#1 -152326#0 153633 153630#1 153632#1 152998#0 152998#1 -153454#1 -153454#0 -153455#0 -152252 153456"/>
    </vehicle>
    <vehicle id="commercial_1-GW2_252" type="commercial" depart="18222" departLane="best" arrivalPos="random">
        <route edges="152450#3 152450#4 -152449 -152219 -152165 -152601#2 -152601#1 -152601#0 -152663#10 -152663#9 -152663#8 -152663#7 -152663#6 -152663#5 -152663#4 -152663#3 -152663#2 -152663#1 152698#0 152698#1 -152771#5 -152771#4 -152771#3 -152771#2 -152771#0 152806#0 152806#1 152806#2 152816 152956#1 152956#2 152956#3 152956#4 152301 152308#0 152308#1 152308#2 -152305 152314#1 152314#2 -152304 152277 152526 -152326#5 -152326#4 -152326#3 -152326#2 -152326#1 -152326#0 153633 152401 -153003#6 -153452#6 -153452#5 -153452#4 -153452#3 -153452#2 -153452#1 -153452#0 -153447#4 -153447#3 -153447#2 -153447#1 -153447#0 -153448#1 -153448#0"/>
    </vehicle>
    <vehicle id="commercial_3-1_127" type="commercial" depart="18226" departLane="best" arrivalPos="random">
        <route edges="153391 152249 -153432 153432 -152249 -153391 -152248 -152409#3 -152409#2 -152409#1 -152409#0 152408 -152533 152924#4 152407 152527 152324#1 152284 152851 152206 152532 152390 153637 152326#0 152326#1 152326#2 152326#3 152326#4 152326#5 152162 -153002#3 -153002#2 -153002#1 -153002#0 152895#2 -152866#4 -152866#3"/>
    </vehicle>
    <vehicle id="commercial_1-GW1_39" type="commercial" depart="18242" departLane="best" arrivalPos="random">
        <route edges="152393#0 152393#1 152393#2 -152159#1 -152159#0 -152869#2 -152869#1 -152869#0 152979 152978#3 152978#4 152969 -152891#1 153472#1 153472#2 153472#3 153472#5 153472#6 153472#7 153472#8 153472#9 153472#10 153472#11 153472#12 153472#13 153472#14 153472#15 153472#16 153472#17 153472#18 153472#19 153472#20 153472#22 153472#23 153472#24 153472#25 153472#26 -152299 -153338 -152298 -153473#1 -153473#0 -152253 -152923 -152300 -153474"/>
    </vehicle>
    <vehicle id="commercial_2-1_98" type="commercial" depart="18243" departLane="best" arrivalPos="random">
        <route edges="-152644#6 152644#6 152349#2 152350#0 152350#1 -152648#0 -152663#10 -152663#9 -152663#8 -152663#7 -152663#6 -152663#5 -152663#4 -152664#2 -152664#1 -152664#0 -152673#4 -152673#3 -152673#2 -152673#1 -152673#0 152650#0 152650#1 152650#2 152530#0 152531#6"/>
    </vehicle>
    <vehicle id="commercial_2-1_215" type="commercial" depart="18257" departLane="best" arrivalPos="random">
        <route edges="153350#2 -153350#2 -153350#1 -153350#0 -153355#1 -153355#0 -153319#4 -153319#3 -153319#2 -153319#1 -153319#0 -153361#4 -153361#3 -153361#1 -153361#0 152342#1 152217 152581#1 152346 152578#0 152578#1 -152586#2 -152586#1 -152586#0 153487#0"/>
    </vehicle>
    <vehicle id="commercial_2-1_35" type="commercial" depart="18260" departLane="best" arrivalPos="random">
        <route edges="153370#9 153370#10 153370#11 153370#12 153370#13 153370#14 152929#1 152929#2 152929#3 -153395#1 -153395#0 152645#0 152645#1 152645#2 152645#3 152645#4 152645#5 153402#0 153402#1 153402#2 152936 152680 152170#1 -152697#5 -152697#4 -152697#3 -152697#2 -152697#1 -152697#0 152225 152939#0 152939#1 -152810#11 -152810#10 -152810#9 -152810#8 -152810#7 -152810#6 152810#6"/>
    </vehicle>
    <vehicle id="commercial_1-GW1_317" type="commercial" depart="18271" departLane="best" arrivalPos="random">
        <route edges="152602#8 152602#9 152509#1 152349#4 152349#1 152349#2 152350#0 152350#1 -152648#0 -152663#10 -152663#9 -152663#8 -152663#7 -152663#6 -152663#5 -152663#4 -152663#3 -152663#2 -152663#1 152698#0 152698#1 -152771#5 -152771#4 -152771#3 -152771#2 -152771#0 152806#0 152806#1 152806#2 152816 152956#1 152956#2 152956#3 152956#4 152301 152308#0 152308#1 152308#2 -152305 152314#1 152314#2 152314#3 152135 152133#0 152134 152964 -152266 -152414 -152954 153472#1 153472#2 153472#3 153472#5 153472#6 153472#7 153472#8 153472#9 153472#10 153472#11 153472#12 153472#13 153472#14 153472#15 153472#16 153472#17 153472#18 153472#19 153472#20 153472#22 153472#23 153472#24 153472#25 153472#26 -152299 -153338 -152298 -153473#1 -153473#0 -152253 -152923 -152300 -153474"/>
    </vehicle>
    <vehicle id="commercial_1-GW1_221" type="commercial" depart="18273" departLane="best" arrivalPos="random">
        <route edges="-152396 -152128 152414 152266 152415#0 152415#1 152277 152526 -152326#5 -152326#4 -152326#3 -152326#2 -152326#1 -152326#0 153633 153630#1 153632#1 152960 -152532 -152206 -152851 -152284 152321#0 152321#1 152198 152323 152201 152325 152319#1"/>
    </vehicle>
    <vehicle id="commercial_3-1_213" type="commercial" depart="18294" departLane="best" arrivalPos="random">
        <route edges="152409#3 152248 153391 152249 -153432 153432 -152249 -153391 -152248 -152409#3 -152409#2 -152409#1 -152409#0 152408 -152533 152924#4 152407 152527 152324#1 152284 152851 152206 152532 152390 153637 152326#0 152326#1 152326#2 152326#3 152326#4 152326#5 152162 152164#0 152164#1 152395#1 152395#2 152897#0 152897#1 152984 152810#0 152810#1 152810#2 152810#3 152810#4"/>
    </vehicle>
    <vehicle id="commercial_2-1_235" type="commercial" depart="18297" departLane="best" arrivalPos="random">
        <route edges="-152909#0 -153475#3 -153475#2 -153475#1 -153475#0 -153472#25 -153472#24 -153472#23 -153472#22 -153472#20 -153472#19 -153472#18 -153472#17 -153472#16 -153472#15 -153472#14 -153472#13 -153472#12 -153472#11 -153472#10 -153472#9 -153472#8 -153472#7 -153472#6 -153472#5 -153472#3 -153472#2 -153472#1 -153472#0 152414 152266 152415#0 152415#1 152304 152314#3 152314#4 152305 152308#3 -152301 -152827#2 -152827#1 -152827#0 152812#4 152812#5 -152806#2 -152806#1 -152806#0 152771#0 -152668#2 -152668#1 -152646#0 -152673#5 -152673#4"/>
    </vehicle>
    <vehicle id="commercial_GW1-1_224" type="commercial" depart="18298" departLane="best" arrivalPos="random">
        <route edges="153474 152300 152923 152253 153473#0 153473#1 152298 153338 152299 -153472#26 -153472#25 -153472#24 -153472#23 -153472#22 -153472#20 -153472#19 -153472#18 -153472#17 -153472#16 -153472#15 -153472#14 -153472#13 -153472#12 -153472#11 -153472#10 153004#0 153004#1 153004#2 153004#3 153004#4 153004#5 153004#6 153004#7 152398#2 152934#0 152934#1 -152934#1"/>
    </vehicle>
    <vehicle id="commercial_GW1-1_406" type="commercial" depart="18307" departLane="best" arrivalPos="random">
        <route edges="152521#0 152521#0-AddedOffRampEdge 152525 152276 152528 152200 152322 152199 152324#0 152324#1 152284 152851 152206 152532 152390 153637 152326#0 152326#1 152326#2 152326#3 152326#4 152326#5 152162 -153002#3 -153002#2 -153002#1 -153002#0 152895#2 -152866#4 -152828#6 -152828#5 -152828#4 152819#0 152819#1 152819#2 152819#3"/>
    </vehicle>
    <vehicle id="commercial_1-GW1_41" type="commercial" depart="18325" departLane="best" arrivalPos="random">
        <route edges="152775 152814#0 152814#1 152814#2 152814#3 152385 152464 152292 153636 153635 152870#4 -152879#2 -152879#1 -152879#0 152971#1 152971#2 152896#0 152896#1 152978#4 152969 -152891#1 153472#1 153472#2 153472#3 153472#5 153472#6 153472#7 153472#8 153472#9 153472#10 153472#11 153472#12 153472#13 153472#14 153472#15 153472#16 153472#17 153472#18 153472#19 153472#20 153472#22 153472#23 153472#24 153472#25 153472#26 -152299 -153338 -152298 -153473#1 -153473#0 -152253 -152923 -152300 -153474"/>
    </vehicle>
    <vehicle id="commercial_1-3_11" type="commercial" depart="18326" departLane="best" arrivalPos="random">
        <route edges="152382#0 152827#1 152827#2 152301 152308#0 152308#1 152308#2 -152305 152314#1 152314#2 152314#3 152135 152133#0 152134 152964 -152266 -152414 -152954 153472#1 153472#2 153472#3 153472#5 153472#6 153472#7 153472#8 153472#9 153472#10 153472#11 153472#12 153472#13 153472#14 153472#15 153472#16 153472#17 153472#18 153472#19 153472#20 153472#22 153472#23 153472#24 153472#25 153472#26 -152299 -153338 -152298 -153473#1 -153473#0 -152253 -152923"/>
    </vehicle>
    <vehicle id="commercial_GW1-1_279" type="commercial" depart="18340" departLane="best" arrivalPos="random">
        <route edges="152268 152513 152204 152512#0 152522 152555 152508#3 152508#4 153377#0 153377#1 153377#2 153377#3 153377#4 153377#5 153377#6 153377#7 -153379#1 -153379#0 -152246 -153381#1 -153381#0 -152247 -153408#5 -153325#5 -153325#4 -153327#11 -153327#10 -153327#9 -153327#8 -153327#7 -153327#6 -153327#5 -153327#4 -153327#2 -153327#1 -153327#0 -153411#1 -153411#0 153409#14 153409#15 153409#16 152993 152995 152702#0 152702#1 152702#2 152702#3 -152697#2 -152697#1 -152697#0 152225 152939#0 152789 152781#2 152163 152965#0 152965#1 152965#2 152965#3 -152791#1 152820#0 152820#1 152133#7 152133#0 152133#1 152133#2 -152853 152295 -152894#2 -152894#1 -152894#0 153556 152971#2 152971#3 152882#0 152962#0 152962#1 152454#1 152454#2 152394#0 -152394#0"/>
    </vehicle>
    <vehicle id="commercial_1-1_308" type="commercial" depart="18350" departLane="best" arrivalPos="random">
        <route edges="-152965#0 152965#0 152965#1 152965#2 152965#3 -152791#1 152804 152955#3 152955#4 -152813#3 -152813#2 -152813#1 -152813#0 -152772 152759 -152768 -152769 -152855 152855"/>
    </vehicle>
    <vehicle id="commercial_1-1_160" type="commercial" depart="18353" departLane="best" arrivalPos="random">
        <route edges="152806#2 152783#0 -152783#0 -152806#2 -152806#1 -152806#0 152771#0 152771#2 152771#3 152771#4 152771#5 -152698#1 -152698#0 152663#1 152663#2 152663#3 152663#4 152663#5 152663#6 152663#7 152663#8 152663#9 152663#10 152663#11 152601#1 152601#2 152165 152219 152449 152450#1 152450#2 152611#0 152611#1 152611#2 -152315 -152961#1 -152961#0 152937#0 152937#1 152937#2 152937#3 -152937#3"/>
    </vehicle>
    <vehicle id="commercial_1-GW1_346" type="commercial" depart="18359" departLane="best" arrivalPos="random">
        <route edges="152668#2 -152771#0 152806#0 152806#1 152806#2 152816 152956#1 152956#2 152956#3 152956#4 152301 152308#0 152308#1 152308#2 -152305 152314#1 152314#2 -152304 152277 152526 -152326#5 -152326#4 -152326#3 -152326#2 -152326#1 -152326#0 153633 153630#1 153632#1 152960 -152532 -152206 -152851 -152284 152321#0 152321#1 152198 152323 152201 152325 152319#1"/>
    </vehicle>
    <vehicle id="commercial_1-1_148" type="commercial" depart="18362" departLane="best" arrivalPos="random">
        <route edges="152462#1 152939#0 152789 152781#2 152163 152965#0 152965#1 152965#2 152965#3 -152791#1 152804 152955#3 152955#4 152955#5 152775 152814#0 152814#1 152814#2 152814#3 152385 152464 152292 153636 153635 152870#4 152870#5 152870#0 152870#1 152871#0"/>
    </vehicle>
    <vehicle id="commercial_1-1_221" type="commercial" depart="18388" departLane="best" arrivalPos="random">
        <route edges="-152944#0 152668#2 -152771#0 152806#0 152806#1 152806#2"/>
    </vehicle>
    <vehicle id="commercial_1-1_376" type="commercial" depart="18394" departLane="best" arrivalPos="random">
        <route edges="-152202 152457 152307 152308#2 -152305 152314#1 152313 -152894#2 -152894#1 -152894#0 153556 152971#2 152971#3 152882#0 152882#1 152869#0 152869#1 152869#2 152159#0 152159#1"/>
    </vehicle>
    <vehicle id="commercial_1-3_63" type="commercial" depart="18398" departLane="best" arrivalPos="random">
        <route edges="-152771#0 152806#0 152806#1 152806#2 152816 152956#1 152956#2 152956#3 152956#4 152301 152308#0 152308#1 152308#2 -152305 152314#1 152314#2 -152304 152277 152526 -152326#5 -152326#4 -152326#3 -152326#2 -152326#1 -152326#0 153633 153630#1 153632#1 152998#0 152998#1 -153454#1"/>
    </vehicle>
    <vehicle id="commercial_1-1_241" type="commercial" depart="18407" departLane="best" arrivalPos="random">
        <route edges="-152578#4 152578#4 152450#2 152450#3 152450#4 -152449 -152219 -152165 -152601#2 -152601#1 -152601#0 -152663#10 -152663#9 -152663#8 -152663#7 -152663#6 -152663#5 -152663#4 -152663#3 -152663#2 -152663#1 152698#0 152698#1 -152771#5 -152771#4 -152771#3 -152771#2 -152771#0 152806#0 152806#1 152806#2 152816 152956#1 152956#2 152956#3 152956#4 152956#5 152956#6 152956#7 152956#8 -153269#2 -153269#1 -153269#0 153269#0"/>
    </vehicle>
    <vehicle id="commercial_GW2-1_176" type="commercial" depart="18410" departLane="best" arrivalPos="random">
        <route edges="-152570#1 152568#1 152568#2 -152973 -152620#1 -152620#0 -153420#1 152730#0 -152732#2 -152732#1 -152732#0 153387#0 153387#1 -153388#0 153323#0 153323#1 153323#2 153323#3 153323#4 153323#5 153323#6 153323#7 153323#8 153323#9 153323#11 153323#12 -153331#7 -153331#6 -153331#5 -153331#4 -153331#3 -153331#2 -153331#1 -153331#0 153440#2 153440#3 153440#4 153440#5 152888#1 -152296 152887#0 152887#1 152395#0 152395#1 152395#2 152897#0 152897#1 152316 152399 152128 152417 152891#2 152978#0 152978#1 152978#2 152978#3 -152896#1 -152896#0"/>
    </vehicle>
    <vehicle id="commercial_3-1_161" type="commercial" depart="18424" departLane="best" arrivalPos="random">
        <route edges="153455#1 153454#1 153001#0 153001#1 152231 153334 153637 152326#0 152326#1 152326#2 152326#3 152326#4 152326#5 152162 152164#0 152164#1 152395#1 152395#2 152897#0 152897#1 152316 152399 152534#0 152534#1 152133#2 152133#3 152133#4 152133#5 152817#0 152817#1 152817#2 152955#4 -152813#3 -152813#2 -152813#1 -152813#0 -152772 152759 152756"/>
    </vehicle>
    <vehicle id="commercial_1-1_451" type="commercial" depart="18427" departLane="best" arrivalPos="random">
        <route edges="152792#1 153545#2 152821#0 152821#1 152956#10 152955#2 152955#3 -152817#2 -152817#1 -152817#0 152133#6 152133#7 152133#0 152134 152964 152415#0 -152934#2 -152934#1 152934#1"/>
    </vehicle>
    <vehicle id="commercial_GW2-1_200" type="commercial" depart="18434" departLane="best" arrivalPos="random">
        <route edges="153652 152279 -152551 -153353#2 -153350#2 -153350#1 -153350#0 -153355#1 -153355#0 -153319#4 -153319#3 -153319#2 -153319#1 -153319#0 -153361#4 -153361#3 -153361#1 -153361#0 152342#1 152217 152581#1 152346 152578#0 152578#1 152578#2 152578#3 152578#4 152450#2 152450#3 152450#4 -152449 -152219 -152165 -152601#2 -152601#1 -152601#0 -152663#10 -152663#9 -152663#8 -152663#7 -152663#6 -152663#5 -152663#4 152710 152170#0 152170#1 -152697#5 -152697#4 -152697#3 -152697#2 -152697#1 -152697#0 152225 152939#0 152939#1 -152810#11 -152941#2 -152941#1 -152941#0 153548#1 153548#2 152866#0 152866#1 152866#2"/>
    </vehicle>
    <vehicle id="commercial_GW1-1_333" type="commercial" depart="18481" departLane="best" arrivalPos="random">
        <route edges="153474 152300 152923 152253 153473#0 153473#1 152298 153338 152299 -153472#26 -153472#25 -153472#24 -153472#23 -153472#22 -153472#20 -153472#19 -153472#18 -153472#17 -153472#16 -153472#15 -153472#14 -153472#13 -153472#12 -153472#11 -153472#10 -153472#9 -153472#8 -153472#7 -153472#6 -153472#5 -153472#3 -153472#2 -153472#1 -153472#0 152414 152266 152415#0 152415#1 152304 152314#3 152314#4 152305 152308#3 152308#0 152267 152419 152202 -152381 -152289 152790 152288 152796 152287 152757 152286 152282 152665#0 152665#1 152359#2 -152603 -152166#1 152166#1 -152598 152165 152219 152449 152450#1 152450#2 152611#0 -152607#0"/>
    </vehicle>
    <vehicle id="commercial_1-1_1" type="commercial" depart="18505" departLane="best" arrivalPos="random">
        <route edges="152939#0 152789 152781#2 152163 -152163 152940#0 152940#1 152940#2 152230 152697#0 152697#1 152697#2 152697#3 152697#4 152697#5 152699 152700 152653#0 152653#1 152653#2 -152673#5 -152673#4 -152673#3 -152673#2 -152673#1 -152673#0 152673#0"/>
    </vehicle>
    <vehicle id="commercial_GW1-1_61" type="commercial" depart="18505" departLane="best" arrivalPos="random">
        <route edges="153474 152300 152923 152253 153473#0 153473#1 152298 153338 152299 -153472#26 -153472#25 -153472#24 -153472#23 -153472#22 -153472#20 -153472#19 -153472#18 -153472#17 -153472#16 -153472#15 -153472#14 -153472#13 -153472#12 -153472#11 -153472#10 -153472#9 -153472#8 -153472#7 -153472#6 -153472#5 -153472#3 -153472#2 -153472#1 -153472#0 152534#0 152534#1 152133#2 152133#3 152133#4 152133#5 152817#0 152822 152814#2 152814#3 152384#0 152384#1 152773 152378 152942"/>
    </vehicle>
    <vehicle id="commercial_2-1_293" type="commercial" depart="18514" departLane="best" arrivalPos="random">
        <route edges="152831#1 -152831#1 -152831#0 -153331#6 -153331#5 -153331#4 -153331#3 -153331#2 -153331#1 -153331#0 153440#2 153440#3 153440#4 153440#5 152888#1 -152296 152887#0 152887#1 152395#0 152395#1 152395#2 152897#0 152897#1 152316 152399 152414 152266 152415#0 152415#1 152304 152314#3 152314#4 152305 152308#3 -152301 152956#5 152956#6 152762#0 152762#1"/>
    </vehicle>
    <vehicle id="commercial_1-GW2_13" type="commercial" depart="18515" departLane="best" arrivalPos="random">
        <route edges="-152689#1 -152689#0 152705#2 152702#1 152702#2 152702#3 -152697#2 -152697#1 -152697#0 152225 152939#0 152939#1 -152810#11 -152810#10 -152810#9 -152810#8 -152810#7 -152810#6 -152810#5 -152810#4 -152810#3 -152810#2 -152810#1 -152810#0 152985 -152897#1 -152897#0 152395#3 152395#0 -152164#1 -152164#0 -152162 -152326#5 -152326#4 -152326#3 -152326#2 -152326#1 -152326#0 153633 153630#1 153632#1 152998#0 152998#1 -153454#1 -153454#0 -153455#0 -152252 153456"/>
    </vehicle>
    <vehicle id="commercial_1-3_77" type="commercial" depart="18516" departLane="best" arrivalPos="random">
        <route edges="152827#2 152301 152308#0 152308#1 152308#2 -152305 152314#1 152314#2 -152304 152277 152526 -152326#5 -152326#4 -152326#3 -152326#2 -152326#1 -152326#0 153633 152401 -153003#6 -153452#6 -153452#5 -153452#4 -153452#3 -153452#2 -153452#1 -153452#0 -153447#4 -153447#3 -153447#2 -153447#1 -153447#0 -153448#1 153453"/>
    </vehicle>
    <vehicle id="commercial_1-3_163" type="commercial" depart="18516" departLane="best" arrivalPos="random">
        <route edges="-152447 152870#1 152870#2 152870#3 152870#4 -152879#2 -152879#1 -152879#0 152971#1 152971#2 152896#0 152896#1 152978#4 152969 -152891#1 153472#1 153472#2 153472#3 153472#5 153472#6 153472#7 153472#8 153472#9 153472#10 153472#11 153472#12 153472#13 153472#14 153472#15 153472#16 153472#17 153472#18 153472#19 153472#20 153472#22 153472#23 153472#24 153472#25 153472#26 -152299 -153338 -152298 -153473#1 -152899"/>
    </vehicle>
    <vehicle id="commercial_1-GW2_151" type="commercial" depart="18516" departLane="best" arrivalPos="random">
        <route edges="152992#6 152992#7 152992#8 153395#1 152929#4 152929#0 -153370#14 -153370#13 -153370#12 -153370#11 -153370#10 -153370#9 -153370#8 -153370#7 -153370#6 -153370#5 -153370#4 -153370#3 -153370#2 -153370#1 -153370#0 -152211 -152562#1 -152562#0 153365#1 152241 152561 152303 -153368#4 -153368#3 -153368#2 -153368#1 -153368#0 152554#1 152554#2 152554#3 152554#5 152554#6 153355#0 153355#1 153350#0 153350#1 153350#2 153353#2 -152953 -152279 152550"/>
    </vehicle>
    <vehicle id="commercial_1-2_39" type="commercial" depart="18540" departLane="best" arrivalPos="random">
        <route edges="152286 152283 152650#1 152650#2 152650#3 152650#4 152666#3 152673#0 152673#1 152673#2 152673#3 152673#4 152673#5 152646#0 152668#1 152668#2 -152377 -152712 -152763#3 -152763#2 -152776 -152702#3 -152702#2 152703#0 152703#1 153400#1 153400#2 153400#3 153400#4 153400#5 153400#6 153400#7 153400#8 152999#0 152999#1"/>
    </vehicle>
    <vehicle id="commercial_GW1-1_376" type="commercial" depart="18553" departLane="best" arrivalPos="random">
        <route edges="152521#0 152521#0-AddedOffRampEdge 152525 152276 152528 152200 152322 152199 152324#0 152324#1 152284 152851 152206 152532 152390 153637 152326#0 152326#1 152326#2 152326#3 152326#4 152326#5 152162 -153002#3 -153002#2 -153002#1 -153002#0 152895#2 -152866#4 -152828#6 -152828#5 -152828#4 -152828#3 -152828#2 -152828#1 -152828#0 -152983#1 -152983#0 -152965#3"/>
    </vehicle>
    <vehicle id="commercial_1-1_483" type="commercial" depart="18558" departLane="best" arrivalPos="random">
        <route edges="152230 152697#0 -152697#0 152225 152939#0 152939#1 -152810#11 -152810#10 -152810#9 -152810#8 -152810#7 -152810#6 -152810#5 -152810#4 -152810#3 -152832#6 -152832#5 -152832#4"/>
    </vehicle>
    <vehicle id="commercial_1-GW1_122" type="commercial" depart="18567" departLane="best" arrivalPos="random">
        <route edges="-152862 152885 -152857 -152856 152772 152813#0 152813#1 152813#2 152813#3 152955#5 152955#1 152955#2 152955#3 -152817#2 -152817#1 -152817#0 152133#6 152133#7 152133#0 152134 152964 -152266 -152414 -152954 153472#1 153472#2 153472#3 153472#5 153472#6 153472#7 153472#8 153472#9 153472#10 153472#11 153472#12 153472#13 153472#14 153472#15 153472#16 153472#17 153472#18 153472#19 153472#20 153472#22 153472#23 153472#24 153472#25 153472#26 -152299 -153338 -152298 -153473#1 -153473#0 -152253 -152923 -152300 -153474"/>
    </vehicle>
    <vehicle id="commercial_1-2_311" type="commercial" depart="18572" departLane="best" arrivalPos="random">