<?xml version="1.0" encoding="UTF-8"?>

<!--
    Monaco SUMO Traffic (MoST) Scenario
    Copyright (C) 2019
    Lara CODECA

    This program is free software: you can redistribute it and/or modify
    it under the terms of the GNU General Public License as published by
    the Free Software Foundation, either version 3 of the License, or
    (at your option) any later version.

    This program is distributed in the hope that it will be useful,
    but WITHOUT ANY WARRANTY; without even the implied warranty of
    MERCHANTABILITY or FITNESS FOR A PARTICULAR PURPOSE.  See the
    GNU General Public License for more details.

    You should have received a copy of the GNU General Public License
    along with this program.  If not, see <http://www.gnu.org/licenses/>.
-->

<routes xmlns:xsi="http://www.w3.org/2001/XMLSchema-instance" xsi:noNamespaceSchemaLocation="http://sumo.dlr.de/xsd/routes_file.xsd"> 
    <vehicle id="commercial_GW2-1_156" type="commercial" depart="18007" departLane="best" arrivalPos="random">
        <route edges="153656 152283 -152555 -153357#2 -153354#2 -153354#1 -153354#0 -153359#1 -153359#0 -152558#6 -152558#5 -152558#3 -152558#2 -152558#1 -152558#0 153372#1 153372#2 153372#3 153372#4 -152307 -152565 -152245 -153369#1 152566#0 152566#1 152215 153374#0 153374#1 153374#2 153374#3 153374#4 153374#5 153374#6 153374#7 153374#8 153374#9 153374#10 153374#11 153374#12 153374#13 153374#14 152933#1 152933#2 152933#3 -153399#1 -153399#0 153413#0 153413#1 153413#3 153413#4 153413#5 153413#6 153413#7 153413#8 153649#0"/>
    </vehicle>
    <vehicle id="commercial_1-1_278" type="commercial" depart="18015" departLane="best" arrivalPos="random">
        <route edges="152670#0 152670#1 152670#2 152670#3 152677#0 152677#1 152677#2 152677#3 152677#4 152677#5 152650#0 152672#1 152672#2 -152381 -152716 -152767#3 -152767#2 -152767#1 -152767#0 -152701#0 152466#0 152466#1"/>
    </vehicle>
    <vehicle id="commercial_1-1_404" type="commercial" depart="18035" departLane="best" arrivalPos="random">
        <route edges="153480#7 152585#1 152350 152582#0 152582#1 152582#2 152582#3 152582#4 152454#2 152454#3 152454#4 -152453 -152223 -152169 -152605#2 -152605#1 -152605#0 -152667#10 -152667#9 -152667#8 -152667#7 -152667#6 -152667#5 -152667#4 -152667#3 -152667#2 -152667#1 152702#0 152702#1 -152939#5 -152767#3 -152767#2 -152780 152701#3 152701#4"/>
    </vehicle>
    <vehicle id="commercial_3-1_274" type="commercial" depart="18043" departLane="best" arrivalPos="random">
        <route edges="-153459#0 -152256 153460 -153460 152256 153459#0 153459#1 153458#1 153005#0 153005#1 152235 153338 153641 152330#0 152330#1 152330#2 152330#3 152330#4 152330#5 152166 152168#0 152168#1 152399#1 152399#2 152901#0 152901#1 152988 152814#0 152814#1 152814#2 152814#3 152814#4 152814#5 152814#6 152814#7 152814#8 152814#9 152814#10 152814#11 152759 152230 152785#0 152819 152944#2 152234 152701#0 152701#1 152701#2 152701#3 152701#4 152701#5 152703 152704 152667#1 152667#2 152667#3 152667#4 152667#5 152667#6 152667#7 152667#8 152667#9 152667#10 152667#11 152605#1 152605#2 152169 152223 152453 152454#1 -152582#4 -152582#3 -152582#2 -152590#2 -152590#1 -152590#0 -153380#4 -153380#3 -153380#2 153565#0"/>
    </vehicle>
    <vehicle id="commercial_GW2-1_214" type="commercial" depart="18046" departLane="best" arrivalPos="random">
        <route edges="153452#0 153452#1 153452#2 153451#1 153451#2 153451#3 153451#4 153451#5 153451#6 153451#7 153433#1 152734#0 -152736#2 -152736#1 -152736#0 153391#0 153391#1 153392#1 153387#1 153387#2 -152628#1 -152628#0 -153384#1 -153384#0 -152177 -152176#2 -152176#1 -152176#0 153383#1 153383#2 153383#3 153383#4 153383#5 -152246 153369#0 153369#1 152245 152565 152307 -153372#4 -153372#3 -153372#2 153480#0 153480#1 153480#2 153480#3 153480#4 153480#5 153480#6 153480#7 152585#1 152350 152582#0 152582#1 152582#2 152582#3 152582#4 152454#2 152615#0 152615#1 152615#2 -152319 -152965#1 -152965#0 152941#0 152941#1 152941#2 152941#3"/>
    </vehicle>
    <vehicle id="commercial_GW1-1_314" type="commercial" depart="18054" departLane="best" arrivalPos="random">
        <route edges="153478 152304 152927 152257 153477#0 153477#1 152302 153342 152303 -153476#26 -153476#25 -153476#24 -153476#23 -153476#22 -153476#20 -153476#19 -153476#18 -153476#17 -153476#16 -153476#15 -153476#14 -153476#13 -153476#12 -153476#11 -153476#10 -153476#9 -153476#8 -153476#7 -153476#6 -153476#5 -153476#3 -153476#2 -153476#1 -153476#0 152418 152270 152419#0 152419#1 152308 152318#3 152318#4 152309 152312#3 -152305 -152831#2 -152831#1 -152831#0 152816#4 152816#5 -152810#2 -152810#1 -152810#0 152775#0 152775#2 152775#3 152775#4 152775#5 -152702#1 -152702#0 152667#1 152667#2 152667#3 152667#4 152667#5 152667#6 152667#7 152667#8 152667#9 152667#10 152667#11 152605#1 152605#2 152169 152223 152453 152454#1 152454#2 152454#3 152606#0 152606#1"/>
    </vehicle>
    <vehicle id="commercial_GW2-1_133" type="commercial" depart="18068" departLane="best" arrivalPos="random">
        <route edges="-153460 152256 153459#0 153459#1 153458#1 153005#0 153005#1 152235 153338 153641 152330#0 152330#1 152330#2 152330#3 152330#4 152330#5 152166 152168#0 152168#1 152399#1 152399#2 152901#0 152901#1 152988 152814#0 152814#1 152814#2 152814#3 152814#4 152814#5 152814#6 152814#7 152814#8 152814#9 152814#10 152814#11 152759 152230 152785#0 152819 152944#2 152234 152701#0 152701#1 152701#2 152701#3 152701#4 152701#5 152703 152705#0 152705#1 152175 152678 152542 152647#0 152648#0 152648#1 152648#2 152648#3 152648#4 152648#5 152648#6 152353#2 152353#3 -152513#1 -152606#9 -152606#8 -152606#7 -152937#4 -152937#3"/>
    </vehicle>
    <vehicle id="commercial_3-1_33" type="commercial" depart="18071" departLane="best" arrivalPos="random">
        <route edges="-153458#0 -153459#0 -152256 153460 -153460 152256 153459#0 153459#1 153458#1 153005#0 153005#1 152235 153338 153641 152330#0 152330#1 152330#2 152330#3 152330#4 152330#5 152166 -153006#3 -153006#2 -153006#1 -153006#0 -152899#1 -152899#0 152402#0 152402#1 152402#2 152938#0 152938#1 152938#2 152419#1 152308 152318#3 152318#4 152309 152312#3 -152305 -152831#2 -152831#1 -152831#0 152816#4 152816#5"/>
    </vehicle>
    <vehicle id="commercial_2-1_69" type="commercial" depart="18087" departLane="best" arrivalPos="random">
        <route edges="153330#0 153330#1 -153331#8 -153331#7 -153331#6 -153331#5 -153331#4 -153331#2 -153331#1 -153331#0 -153415#1 -153415#0 153413#14 153413#15 153413#16 152997 152999 152706#0 152706#1 152706#2 152706#3 -152701#2 -152701#1 -152701#0 152229 152943#0 152793 152785#2 152167 152969#0 152969#1 152969#2 152969#3 -152795#1 152808 152959#3 152959#4 152959#5 152779 152818#0 152818#1 152818#2 152818#3 152389 152468 152296 153640 153639 152874#4 152874#5 152874#0 152874#1 152874#2 153638 152297#0 152297#0-AddedOffRampEdge 152297#1 152967"/>
    </vehicle>
    <vehicle id="commercial_2-1_273" type="commercial" depart="18092" departLane="best" arrivalPos="random">
        <route edges="152926 153475#2 153472#3 153470 153010#0 153010#1 -153476#22 -153476#20 -153476#19 -153476#18 -153476#17 -153476#16 -153476#15 -153476#14 -153476#13 -153476#12 -153476#11 -153476#10 -153476#9 -153476#8 -153476#7 -153476#6 -153476#5 -153476#3 -153476#2 -153476#1 152895#1 152895#2 152982#0 152982#1 152982#2 -152983 152873#0 152873#1 152873#2 152873#3 152298 -152646 152398#2 152398#3 152398#4 -152398#4 -152398#3"/>
    </vehicle>
    <vehicle id="commercial_1-1_370" type="commercial" depart="18097" departLane="best" arrivalPos="random">
        <route edges="152818#1 152818#2 152818#3 152816#0 152816#1 152816#2 152816#3 152816#4 152816#5 -152810#2 -152810#1 -152810#0 152775#0 -152381 -152716 -152767#3 -152767#2 -152767#1 -152767#0 -152701#0 152229 152943#0 152943#1 -152814#11 -152814#10 -152814#9 -152814#8 -152812#5 -152812#4 -152812#3 -152812#2 -152812#1 -152812#0 153441#1 153446 152830#1 152830#2"/>
    </vehicle>
    <vehicle id="commercial_2-1_230" type="commercial" depart="18101" departLane="best" arrivalPos="random">
        <route edges="152937#4 -152606#6 -152606#5 -152606#4 -152606#3 -152606#2 -152617 -152610 152602 152607 152363#3 152363#0 152363#1 -152669#1 -152669#0 -152226 -152290 -152761 -152291 -152800 -152292 -152794 152293 152385 -152206 152461 152311 152312#2 -152309 152318#1 152317 -152898#2 -152898#1 -152898#0 152974 152887#1 -153558 153559#1"/>
    </vehicle>
    <vehicle id="commercial_3-1_233" type="commercial" depart="18111" departLane="best" arrivalPos="random">
        <route edges="153395 152253 -153436 153436 -152253 -153395 -152252 -152413#3 -152413#2 -152413#1 -152413#0 152412 -152537 152928#4 152411 152531 152328#1 152288 152855 152210 152536 152394 153641 152330#0 152330#1 152330#2 152330#3 152330#4 152330#5 152166 152168#0 152168#1 152399#1 152399#2 152901#0 152901#1 152320 152403 152132 152421 152895#2 152982#0 152982#1 152982#2 -152983 152873#0 152873#1 152873#2 152873#3 152298 -152646 152398#2 152398#3 152398#4 -152398#4 -152398#3"/>
    </vehicle>
    <vehicle id="commercial_1-3_275" type="commercial" depart="18120" departLane="best" arrivalPos="random">
        <route edges="152703 152704 152702#0 152702#1 -152775#5 -152775#4 -152775#3 -152775#2 -152775#0 152810#0 152810#1 152810#2 152820 152960#1 152960#2 152960#3 152960#4 152305 152312#0 152312#1 152312#2 -152309 152318#1 152318#2 -152308 152281 152530 -152330#5 -152330#4 -152330#3 -152330#2 -152330#1 -152330#0 153637 152405 -153007#6 -153456#6 -153456#5 -153456#4 -153456#3 -153456#2 -153456#1 -153456#0 153451#5 153435#0 153435#1 153435#2 153435#3 152416#1 152413#0 152413#1 152413#2 152413#3 152252 153395"/>
    </vehicle>
    <vehicle id="commercial_1-GW1_372" type="commercial" depart="18130" departLane="best" arrivalPos="random">
        <route edges="153414#1 153414#2 152681 152649#3 152649#4 152649#5 153406#0 153406#1 153406#2 152940 152684 152174#1 -152701#5 -152701#4 -152701#3 -152701#2 -152701#1 -152701#0 152229 152943#0 152793 152785#2 152167 152969#0 152969#1 152969#2 152969#3 -152795#1 152824#0 152824#1 152137#7 152137#0 152138 152968 -152270 -152418 -152958 153476#1 153476#2 153476#3 153476#5 153476#6 153476#7 153476#8 153476#9 153476#10 153476#11 153476#12 153476#13 153476#14 153476#15 153476#16 153476#17 153476#18 153476#19 153476#20 153476#22 153476#23 153476#24 153476#25 153476#26 -152303 -153342 -152302 -153477#1 -153477#0 -152257 -152927 -152304 -153478"/>
    </vehicle>
    <vehicle id="commercial_3-1_23" type="commercial" depart="18132" departLane="best" arrivalPos="40.16923210112182">
        <route edges="153452#0 153452#1 153452#2 153451#1 153451#2 153451#3 153451#4 153456#0 153456#1 153456#2 153456#3 153456#4 153456#5 153456#6 153007#6 152406 153636#1 153002#0 152838 153005#1 152235 153338 153641 152330#0 152330#1 152330#2 152330#3 152330#4 152330#5 152166 152168#0 152168#1 152399#1 152399#2 152901#0 152901#1 152320 152403 152132 152421 152895#2 152982#0 152982#1 152982#2 152982#3 -152900#1 -152900#0 152975#3 152975#4 152883#0 152883#1 152883#2 152874#5 152874#0 152451"/>
        <stop parkingArea="1151" until="44980"/>
    </vehicle>
    <vehicle id="commercial_1-GW1_20" type="commercial" depart="18132" departLane="best" arrivalPos="random">
        <route edges="152677#0 152677#1 152677#2 152677#3 152677#4 152677#5 152650#0 152672#1 152672#2 -152775#0 152810#0 152810#1 152810#2 152820 152960#1 152960#2 152960#3 152960#4 152305 152312#0 152312#1 152312#2 -152309 152318#1 152318#2 152318#3 152139 152137#0 152138 152968 -152270 -152418 -152958 153476#1 153476#2 153476#3 153476#5 153476#6 153476#7 153476#8 153476#9 153476#10 153476#11 153476#12 153476#13 153476#14 153476#15 153476#16 153476#17 153476#18 153476#19 153476#20 153476#22 153476#23 153476#24 153476#25 153476#26 -152303 -153342 -152302 -153477#1 -153477#0 -152257 -152927 -152304 -153478"/>
    </vehicle>
    <vehicle id="commercial_1-1_124" type="commercial" depart="18175" departLane="best" arrivalPos="random">
        <route edges="-152671 152658#1 152535#6 152654#4 152670#3 152677#0 152677#1 152677#2 152677#3 152677#4 152677#5 152650#0 152672#1 152672#2 -152381 -152716 -152767#3 -152767#2 -152767#1 -152767#0 -152701#0 152229 152943#0 152943#1 -152814#11 -152945#2 -152945#1 -152945#0 153552#1 153552#2 152870#0"/>
    </vehicle>
    <vehicle id="commercial_1-GW2_6" type="commercial" depart="18176" departLane="best" arrivalPos="random">
        <route edges="-152606#3 -152606#2 -152606#1 -152606#0 152454#4 152454#1 -152582#4 -152582#3 -152582#2 -152582#1 -152582#0 152576 152219 153365#0 153365#1 153365#3 153365#4 153323#0 153323#1 153323#2 153323#3 153323#4 153359#0 153359#1 153354#0 153354#1 153354#2 153357#2 -152957 -152283 152554"/>
    </vehicle>
    <vehicle id="commercial_3-1_355" type="commercial" depart="18215" departLane="best" arrivalPos="random">
        <route edges="153029 -153394#1 -153394#0 -152413#2 -152413#1 -152413#0 152412 -152537 152928#4 152411 152531 152328#1 152288 152855 152210 152536 152394 153641 152330#0 152330#1 152330#2 152330#3 152330#4 152330#5 152166 152168#0 152168#1 152399#1 152399#2 152901#0 152901#1 152320 152403 152132 152421 152895#2 152982#0 152982#1 152894#0 152894#1 -152873#0 152983"/>
    </vehicle>
    <vehicle id="commercial_1-GW1_161" type="commercial" depart="18218" departLane="best" arrivalPos="random">
        <route edges="-152650#1 152672#1 152672#2 -152775#0 152810#0 152810#1 152810#2 152820 152960#1 152960#2 152960#3 152960#4 152305 152312#0 152312#1 152312#2 -152309 152318#1 152318#2 152318#3 152139 152137#0 152138 152968 -152270 -152418 -152958 153476#1 153476#2 153476#3 153476#5 153476#6 153476#7 153476#8 153476#9 153476#10 153476#11 153476#12 153476#13 153476#14 153476#15 153476#16 153476#17 153476#18 153476#19 153476#20 153476#22 153476#23 153476#24 153476#25 153476#26 -152303 -153342 -152302 -153477#1 -153477#0 -152257 -152927 -152304 -153478"/>
    </vehicle>
    <vehicle id="commercial_3-1_344" type="commercial" depart="18220" departLane="best" arrivalPos="random">
        <route edges="-152903 153458#1 153005#0 153005#1 152235 153338 153641 152330#0 152330#1 152330#2 152330#3 152330#4 152330#5 152166 152168#0 152168#1 152399#1 152399#2 152399#3 -152891#1 -152891#0 152300 -152892#1 -152892#0 152836#0 152836#1 152836#2 152836#3 152836#4 -152830#2 -152830#1 -152830#0 -153441#1 -153441#0 -153445#1 -153445#0 153003#0 153003#1 153004 -152971#5 -152971#4 -152971#3 -152971#2 -152971#1 -152971#0 152708#1"/>
    </vehicle>
    <vehicle id="commercial_3-1_31" type="commercial" depart="18224" departLane="best" arrivalPos="random">
        <route edges="-153394#2 -153394#1 -153394#0 -152413#2 -152413#1 -152413#0 152412 -152537 152928#4 152411 152531 152328#1 152288 152855 152210 152536 152394 153641 152330#0 152330#1 152330#2 152330#3 152330#4 152330#5 152166 152168#0 152168#1 152399#1 152399#2 152901#0 152901#1 152320 152403 152538#0 152538#1 152137#2 152137#3 152137#4 152137#5 152821#0 152826 152818#2 152818#3 152388#0 152388#1 152777 152382 152771 -152769 152946 -152777"/>
    </vehicle>
    <vehicle id="commercial_1-2_230" type="commercial" depart="18225" departLane="best" arrivalPos="random">
        <route edges="152942 152880#1 152880#2 152877 152869 152863 152868 152935 152806 -152803 -152799 -152760 -152763 152776 152817#0 152817#1 152817#2 152817#3 152959#5 152779 152818#0 152818#1 152818#2 152818#3 152816#0 152816#1 152816#2 152816#3 152816#4 152816#5 -152810#2 -152810#1 -152810#0 152775#0 152775#2 152775#3 152775#4 152775#5 -152702#1 -152702#0 152667#1 152667#2 152667#3 152667#4 152667#5 152667#6 152667#7 152667#8 152667#9 152667#10 152667#11 152605#1 152605#2 152169 152223 152453 152454#1 -152582#4 -152582#3 -152582#2 -152582#1 -152582#0 152576 152219 153365#0 153365#1 153365#3 153365#4 153323#0 153323#1 153323#2 153323#3 153323#4 153359#0 153359#1 153354#0 153354#1 153354#2 153357#2 -152957"/>
    </vehicle>
    <vehicle id="commercial_1-3_322" type="commercial" depart="18276" departLane="best" arrivalPos="random">
        <route edges="152649#1 152649#2 152649#3 152649#4 152649#5 153406#0 153406#1 153406#2 152940 152684 152174#1 -152701#5 -152701#4 -152701#3 -152701#2 -152701#1 -152701#0 152229 152943#0 152943#1 -152814#11 -152814#10 -152814#9 -152814#8 -152814#7 -152814#6 -152814#5 -152814#4 -152814#3 -152814#2 -152814#1 -152814#0 152989 -152901#1 -152901#0 152399#3 152399#0 -152168#1 -152168#0 -152166 -152330#5 -152330#4 -152330#3 -152330#2 -152330#1 -152330#0 153637 153634#1 153636#1 153002#0 153002#1 -153458#1 -153458#0 -153459#0"/>
    </vehicle>
    <vehicle id="commercial_2-1_48" type="commercial" depart="18285" departLane="best" arrivalPos="random">
        <route edges="153477#1 152302 153342 152303 -153476#26 -153476#25 -153476#24 -153476#23 -153476#22 -153476#20 -153476#19 -153476#18 -153476#17 -153476#16 -153476#15 -153476#14 -153476#13 -153476#12 -153476#11 -153476#10 -153476#9 -153476#8 -153476#7 -153476#6 -153476#5 -153476#3 -153476#2 -153476#1 -153476#0 152418 152270 152419#0 152419#1 152308 152318#3 152318#4 152309 152312#3 -152305 -152831#2 -152831#1 -152831#0 152816#4 152816#5 -152810#2 -152810#1 -152810#0 152775#0 -152672#2 -152672#1 -152650#0 -152677#5 -152677#4"/>
    </vehicle>
    <vehicle id="commercial_1-GW1_354" type="commercial" depart="18298" departLane="best" arrivalPos="random">
        <route edges="-152884#0 -152885 152889 -152861 -152860 152776 152817#0 152817#1 152817#2 152817#3 152959#5 152779 152818#0 152818#1 152818#2 152818#3 152816#0 152816#1 152816#2 152816#3 152816#4 152816#5 -152810#2 -152810#1 -152810#0 152775#0 -152381 -152716 -152767#3 -152767#2 -152780 -152706#3 -152706#2 -152706#1 -152706#0 -152999 -152997 -153413#16 -153413#15 -153413#14 153415#0 153415#1 153331#0 153331#1 153331#2 153331#4 153331#5 153331#6 153331#7 153331#8 153331#9 153331#10 153331#11 153329#4 153329#5 153412#5 152251 153385#0 153385#1 152250 153383#0 153383#1 -153381#7 -153381#6 -153381#5 -153381#4 -153381#3 -153381#2 -153381#1 -153381#0 152512#1 152512#2 -152559 152527 153628#1 152209 152518 152273"/>
    </vehicle>
    <vehicle id="commercial_1-1_95" type="commercial" depart="18312" departLane="best" arrivalPos="random">
        <route edges="-152899#0 152402#0 152402#1 152402#2 152402#3 152899#0 152899#1 152899#2 -152870#4 -152870#3 -152870#2 -152870#1 -152870#0 153552#3 153552#0 152945#0 152945#1 152945#2 152814#11 152759 152230 152785#0 152819 152944#2 152234 152701#0 152701#1 152701#2 152780 -152767#1 -152767#0 -152701#0 152229 152943#0 152943#1"/>
    </vehicle>
    <vehicle id="commercial_1-2_328" type="commercial" depart="18312" departLane="best" arrivalPos="random">
        <route edges="152836#3 152836#4 -152830#2 -152830#1 -152830#0 -153441#1 -153441#0 -153445#1 -153445#0 -153404#8 -153404#7 -153404#6 -153404#5 -153404#4 -153404#3 -153404#2 -153404#1 153554#0 153554#1 153554#2 -153556 -153413#16 -153413#15 -153413#14 -153413#13 -153413#12 -153413#11 -153413#10 -153413#9 -153413#8 -153413#7 -153413#6 -153413#5 -153413#4"/>
    </vehicle>
    <vehicle id="commercial_1-2_149" type="commercial" depart="18324" departLane="best" arrivalPos="random">
        <route edges="-152354#0 152353#3 152353#4 152353#1 152353#2 152354#0 152354#1 -152652#0 -152667#10 -152667#9 -152667#8 -152667#7 -152667#6 -152667#5 -152667#4 152714 152174#0 152174#1 -152701#5 -152701#4 -152701#3 -152706#3 -152706#2 152707#0 152707#1 153404#1 153404#2 153404#3 153404#4 153404#5"/>
    </vehicle>
    <vehicle id="commercial_1-GW2_242" type="commercial" depart="18339" departLane="best" arrivalPos="random">
        <route edges="152661 152949 152651 152659 152673 152653 -152667#8 -152667#7 -152667#6 -152667#5 -152667#4 -152667#3 -152667#2 -152667#1 152702#0 152702#1 -152775#5 -152775#4 -152775#3 -152775#2 -152775#0 152810#0 152810#1 152810#2 152820 152960#1 152960#2 152960#3 152960#4 152305 152312#0 152312#1 152312#2 -152309 152318#1 152318#2 -152308 152281 152530 -152330#5 -152330#4 -152330#3 -152330#2 -152330#1 -152330#0 153637 152405 -153007#6 -153456#6 -153456#5 -153456#4 -153456#3 -153456#2 -153456#1 -153456#0 -153451#4 -153451#3 -153451#2 -153451#1 -153451#0 -153452#1 -153452#0"/>
    </vehicle>
    <vehicle id="commercial_1-1_316" type="commercial" depart="18351" departLane="best" arrivalPos="random">
        <route edges="-152781 -152716 -152767#3 -152767#2 -152767#1 -152767#0 -152701#0 152229 152943#0 152943#1 -152814#11 -152814#10 -152814#9 -152814#8 -152812#5 -152812#4 152829 -152790 152812#4 152812#5"/>
    </vehicle>
    <vehicle id="commercial_2-1_40" type="commercial" depart="18356" departLane="best" arrivalPos="random">
        <route edges="152920#2 153010#0 153010#1 -153476#22 -153476#20 -153476#19 -153476#18 -153476#17 -153476#16 -153476#15 -153476#14 -153476#13 -153476#12 -153476#11 -153476#10 -153476#9 -153476#8 -153476#7 -153476#6 -153476#5 -153476#3 -153476#2 -153476#1 152895#1 152895#2 152982#0 152982#1 152982#2 152982#3 -152900#1 -152900#0 152975#3 152975#4 152883#0"/>
    </vehicle>
    <vehicle id="commercial_3-1_347" type="commercial" depart="18357" departLane="best" arrivalPos="random">
        <route edges="152413#3 152252 153395 152253 -153436 153436 -152253 -153395 -152252 -152413#3 -152413#2 -152413#1 -152413#0 152412 152444#1 -153435#3 -153435#2 -153435#1 -153435#0 153451#6 153451#7 153433#1 152734#0 -152736#2 -152736#1 -152736#0 153391#0 153391#1 153392#1 153387#1 153387#2 -152628#1 -152628#0 -153384#1 -153384#0 -152177 -152176#2 -152176#1 -152176#0 153383#1 153383#2 153383#3 153383#4 153383#5 -152246 153369#0 153369#1 152245 152565 152307 -153372#4 -153372#3 -153372#2 153480#0 153480#1 153480#2 153480#3 153480#4 153480#5 153480#6 153480#7 152585#1 152350 152582#0 152582#1 152582#2 152582#3 152582#4 152454#2 152454#3 152454#4 152454#1 -152582#4"/>
    </vehicle>
    <vehicle id="commercial_2-1_335" type="commercial" depart="18371" departLane="best" arrivalPos="random">
        <route edges="-153404#5 -153404#4 -153404#3 -153404#2 -153404#1 -153404#0 -152707#0 152706#2 152706#3 -152701#2 -152701#1 -152701#0 152229 152943#0 152793 152785#2 152167 152969#0 152969#1 152969#2 152969#3 -152795#1 152808 152959#3 152959#4 -152817#3 -152817#2 -152817#1 -152817#0 -152776 152860"/>
    </vehicle>
    <vehicle id="commercial_GW2-1_183" type="commercial" depart="18392" departLane="best" arrivalPos="random">
        <route edges="153452#0 153452#1 153452#2 153451#1 153451#2 153451#3 153451#4 153456#0 153456#1 153456#2 153456#3 153456#4 153456#5 153456#6 153007#6 152406 153636#1 153002#0 152838 153005#1 152235 153338 153641 152330#0 152330#1 152330#2 152330#3 152330#4 152330#5 152166 152168#0 152168#1 152399#1 152399#2 152901#0 152901#1 152320 152403 152538#0 152538#1 152137#2 152137#3 152137#4 152137#5 152821#0 152821#1 152821#2 152959#4 -152817#3 -152817#2 -152817#1 -152817#0 -152776 152860 152862 -152889 152885 152884#0 152884#1 152881"/>
    </vehicle>
    <vehicle id="commercial_3-1_105" type="commercial" depart="18399" departLane="best" arrivalPos="random">
        <route edges="-152847 153456#4 153456#5 153456#6 153007#6 152406 153636#1 153002#0 152838 153005#1 152235 153338 153641 152330#0 152330#1 152330#2 152330#3 152330#4 152330#5 152166 -153006#3 -153006#2 -153006#1 -153006#0 152899#2 -152870#4 -152832#6 -152832#5 -152832#4 152823#0 152823#1 152823#2"/>
    </vehicle>
    <vehicle id="commercial_3-1_149" type="commercial" depart="18407" departLane="best" arrivalPos="random">
        <route edges="153641 152330#0 152330#1 152330#2 152330#3 152330#4 152330#5 152166 152168#0 152168#1 152399#1 152399#2 152901#0 152901#1 152320 152403 152538#0 152538#1 152137#2 152137#3 152137#4 152137#5 152821#0 152821#1 152821#2 152959#4 -152817#3 -152817#2 -152817#1 -152817#0 -152776 152860 152862 -152889 152885 152884#0 152884#1 152881 152882 152942"/>
    </vehicle>
    <vehicle id="commercial_1-1_226" type="commercial" depart="18422" departLane="best" arrivalPos="random">
        <route edges="152593 152590#2 152582#2 152582#3 152582#4 152454#2 152454#3 152454#4 -152453 -152223 -152169 -152605#2 -152605#1 -152605#0 -152667#10 -152667#9 -152667#8 -152667#7 -152667#6 -152667#5 -152667#4 152714 152174#0 152174#1 -152701#5 -152701#4 -152701#3 -152701#2 -152701#1 -152701#0 152229 152943#0 152943#1 -152814#11 -152814#10 -152814#9 -152814#8 -152812#5 -152812#4 152829 -152790 152812#4 152812#5"/>
    </vehicle>
    <vehicle id="commercial_1-2_60" type="commercial" depart="18428" departLane="best" arrivalPos="random">
        <route edges="152395 152397#2 -152163#1 -152163#0 152873#3 152298 -152646 -152398#1 -152398#0 152458#3 -152451 152874#1 152874#2 153638 152297#0 152297#0-AddedOffRampEdge 152297#1 152967 152816#2 152816#3 152816#4 152816#5 -152810#2 -152810#1 -152810#0 152775#0 152775#2 152775#3 152775#4 152775#5 -152702#1 -152702#0 152667#1 152667#2 152667#3 152667#4 152667#5 152667#6 152667#7 152667#8 152667#9 152667#10 152667#11 152605#1 152605#2 152169 152223 152453 152454#1 -152582#4 -152582#3 -152582#2 -152582#1 -152582#0 152576 152219 152346#1 152221 -153480#7 -153480#6 -153480#5 -153480#4 -153480#3 -153480#2 -153480#1 -153480#0 -153372#1 -153326#4 -153326#3 -153326#2 -153326#1 -153326#0 152553 -152553 153360#1"/>
    </vehicle>
    <vehicle id="commercial_GW1-1_301" type="commercial" depart="18433" departLane="best" arrivalPos="random">
        <route edges="153478 152304 152927 152257 153477#0 153477#1 152302 153342 152303 -153476#26 -153476#25 -153476#24 -153476#23 -153476#22 -153476#20 -153476#19 -153476#18 -153476#17 -153476#16 -153476#15 -153476#14 -153476#13 -153476#12 -153476#11 -153476#10 153008#0 153008#1 153008#2 153008#3 153008#4 153008#5 153008#6 153008#7 152402#2 152402#3 152899#0 152899#1 152899#2 -152870#4 -152832#6 -152832#5 -152832#4 152823#0 152823#1"/>
    </vehicle>
    <vehicle id="commercial_GW1-1_216" type="commercial" depart="18437" departLane="best" arrivalPos="random">
        <route edges="153478 152304 152927 152257 153477#0 153477#1 152302 153342 152303 -153476#26 -153476#25 -153476#24 -153476#23 -153476#22 -153476#20 -153476#19 -153476#18 -153476#17 -153476#16 -153476#15 -153476#14 -153476#13 -153476#12 -153476#11 -153476#10 153008#0 153008#1 153008#2 153008#3 153008#4 153008#5 153008#6 153008#7 152402#2 152402#3 152899#0 152899#1 152899#2 -152870#4 -152870#3 -152870#2 -152870#1 -152870#0 153552#3 153552#0 152945#0 152945#1 152945#2 152814#11 152759 152230 152785#0 152819 152944#2 152234 152701#0 152701#1 152701#2 -152706#3 -152706#2 -152706#1 -152706#0 -152999 -152997 -153413#16 -153413#15 -153413#14 -153413#13 -153413#12 -153413#11 -153413#10 -153413#9 -153413#8 -153413#7 -153413#6 -153413#5 -153413#4 -153413#3 -153413#1 -153413#0 153399#0 -152996#8 -152996#7"/>
    </vehicle>
    <vehicle id="commercial_1-1_49" type="commercial" depart="18440" departLane="best" arrivalPos="random">
        <route edges="152969#0 152969#1 152969#2 152969#3 152987#0 152987#1 152987#2 -152987#2 -152987#1 -152987#0 -152969#3 -152969#2 -152969#1 -152969#0 -152167"/>
    </vehicle>
    <vehicle id="commercial_2-1_58" type="commercial" depart="18444" departLane="best" arrivalPos="random">
        <route edges="152408 -153476#19 -153476#18 -153476#17 -153476#16 -153476#15 -153476#14 -153476#13 -153476#12 -153476#11 -153476#10 -153476#9 -153476#8 -153476#7 -153476#6 -153476#5 -153476#3 -153476#2 -153476#1 152895#1 152895#2 152982#0 152982#1 152982#2 -152983 152873#0 152873#1 152873#2 152163#0 152163#1 152397#0 152397#1 152397#2 -152163#1"/>
    </vehicle>
    <vehicle id="commercial_1-1_387" type="commercial" depart="18446" departLane="best" arrivalPos="12.5">
        <route edges="152701#2 152780 -152767#1 -152767#0 -152701#0 152229 152943#0 152793 152785#2 152167 152969#0 152969#1 152969#2 152969#3 152987#0 152987#1 152832#0 152832#1"/>
        <stop parkingArea="1153" until="45010"/>
    </vehicle>
    <vehicle id="commercial_2-1_87" type="commercial" depart="18453" departLane="best" arrivalPos="random">
        <route edges="-153479#7 -153479#6 -153479#5 -153479#3 -153479#2 -153479#1 -153479#0 -153476#25 -153476#24 -153476#23 -153476#22 -153476#20 -153476#19 -153476#18 -153476#17 -153476#16 -153476#15 -153476#14 -153476#13 -153476#12 -153476#11 -153476#10 -153476#9 -153476#8 -153476#7 -153476#6 -153476#5 -153476#3 -153476#2 -153476#1 152895#1 152895#2 152982#0 152982#1 152982#2 152982#3 -152900#1 -152900#0 152975#3 152975#4 152883#0 152883#1 152883#2 152874#5 152874#0 152874#1 152875#0"/>
    </vehicle>
    <vehicle id="commercial_1-GW1_212" type="commercial" depart="18456" departLane="best" arrivalPos="random">
        <route edges="152806 -152803 -152799 -152760 -152763 152776 152817#0 152817#1 152817#2 152817#3 152959#5 152959#1 152959#2 152959#3 -152821#2 -152821#1 -152821#0 152137#6 152137#7 152137#0 152138 152968 -152270 -152418 -152958 153476#1 153476#2 153476#3 153476#5 153476#6 153476#7 153476#8 153476#9 153476#10 153476#11 153476#12 153476#13 153476#14 153476#15 153476#16 153476#17 153476#18 153476#19 153476#20 153476#22 153476#23 153476#24 153476#25 153476#26 -152303 -153342 -152302 -153477#1 -153477#0 -152257 -152927 -152304 -153478"/>
    </vehicle>
    <vehicle id="commercial_2-1_51" type="commercial" depart="18458" departLane="best" arrivalPos="random">
        <route edges="-152873#1 -152873#0 152983 152982#3 -152900#1 -152900#0 152975#3 152975#4 152883#0 152883#1 152883#2 152874#5 152874#0 152874#1 152874#2 153638 152297#0 152297#0-AddedOffRampEdge 152297#1 152967 152816#2 152816#3 152816#4 152816#5 -152810#2 -152810#1 -152810#0 152775#0 152775#2 152775#3 152775#4 152775#5 -152702#1 -152702#0 152667#1 152667#2 152667#3 152667#4 152667#5 152667#6 152667#7 152667#8 152667#9 152667#10 152667#11 152605#1 152605#2 152169 152223 152453 152454#1 152454#2 152615#0 152615#1 152615#2 -152319 -152965#1 -152965#0 152937#0 152937#1 152937#2 152937#3 152937#4"/>
    </vehicle>