<?xml version="1.0" encoding="UTF-8"?>
<!-- generated on 2019-02-27 12:10:37.076861 by $Id$
  options: -n /home/drone/EURECOM/Projects/GITHUB/MoSTScenario/scenario/in/most.net.xml -b 14400 -e 50400 -p 900 <doubleminus>random-begin <doubleminus>seed 42 <doubleminus>no-vtypes <doubleminus>ptstops /home/drone/EURECOM/Projects/GITHUB/MoSTScenario/scenario/in/add/most.busstops.add.xml <doubleminus>ptlines pt/most.buslines.add.xml -o out/most.buses.flows.xml
-->
<routes xmlns:xsi="http://www.w3.org/2001/XMLSchema-instance" xsi:noNamespaceSchemaLocation="http://sumo.dlr.de/xsd/routes_file.xsd">
    <route id="bus_M2:France" edges="-153420#0 -153429#0 -153447#6 -153447#5 -153447#4 -153447#3 -153447#2 -153447#1 -153447#0 -153448#1 153453 -153455#0 -152252 153456" >
        <stop busStop="131165" duration="30.00" until="46.0"/> <!-- La Turbie Marie -->
        <stop busStop="131169" duration="30.00" until="397.0"/> <!-- 131169 -->
    </route>
    <route id="bus_M4:Train" edges="-152905 152905 153472#14 153472#15 153472#16 153472#17 153472#18 153472#19 153472#20 153472#22 -153006#1 -153006#0 -152916#2" >
        <stop busStop="131181" duration="30.00" until="36.0"/> <!-- L'Eglise -->
        <stop busStop="131179" duration="30.00" until="168.0"/> <!-- La Source -->
        <stop busStop="131035" duration="30.00" until="251.0"/> <!-- Les Cigognes -->
        <stop busStop="131196" duration="30.00" until="310.0"/> <!-- Bois Joli -->
    </route>
    <route id="bus_M4:HotelVille" edges="152916#2 153006#0 153006#1 -153472#22 -153472#20 -153472#19 -153472#18 -153472#17 -153472#16 -153472#15 -153472#14 -153472#13" >
        <stop busStop="131027" duration="30.00" until="41.0"/> <!-- Bois Joli -->
        <stop busStop="131197" duration="30.00" until="100.0"/> <!-- Les Cigognes -->
        <stop busStop="131178" duration="30.00" until="174.0"/> <!-- Guillaume Apollinaire -->
        <stop busStop="131180" duration="30.00" until="249.0"/> <!-- L'Eglise -->
        <stop busStop="131182" duration="30.00" until="313.0"/> <!-- Hotel de Ville -->
    </route>
    <route id="bus_M2:Turbie" edges="-153456 152252 153455#0 -153453 153448#1 153448#2 153447#1 153447#2 153447#3 153447#4 153447#5 153447#6 153447#7" >
        <stop busStop="131168" duration="30.00" until="41.0"/> <!-- 131168 -->
        <stop busStop="131030" duration="30.00" until="393.0"/> <!-- La Turbie Marie -->
    </route>
    <route id="bus_M1:France" edges="152923 152253 153473#0 -152899 -153454#0 -153455#0 -152252 153456" >
        <stop busStop="131173" duration="30.00" until="74.0"/> <!-- Parking Saint-Laurent d'Eze -->
        <stop busStop="131031" duration="30.00" until="242.0"/> <!-- Chapelle de Saint-Laurent -->
        <stop busStop="131169" duration="30.00" until="619.0"/> <!-- 131169 -->
    </route>
    <route id="bus_M1:Eze" edges="-153456 152252 153455#0 153455#1 152899 -153473#0 -152253 -152923" >
        <stop busStop="131168" duration="30.00" until="41.0"/> <!-- 131168 -->
        <stop busStop="131163" duration="30.00" until="433.0"/> <!-- Chapelle de Saint-Laurent -->
        <stop busStop="131172" duration="30.00" until="578.0"/> <!-- Parking Saint-Laurent d'Eze -->
    </route>
    <route id="bus_M5:PontUnion" edges="152989#0 152989#1 152235 153353#0 153353#1 153353#2 -152953 -152279 152550" >
        <stop busStop="131159" duration="30.00" until="66.0"/> <!-- Ramingao -->
        <stop busStop="131156" duration="30.00" until="146.0"/> <!-- 2e Escalier -->
        <stop busStop="131154" duration="30.00" until="206.0"/> <!-- 1er Escalier -->
        <stop busStop="131152" duration="30.00" until="290.0"/> <!-- Massolin -->
        <stop busStop="131079" duration="30.00" until="392.0"/> <!-- Cypris -->
        <stop busStop="131078" duration="30.00" until="459.0"/> <!-- Orchidees -->
        <stop busStop="131076" duration="30.00" until="600.0"/> <!-- Victoria -->
        <stop busStop="131195" duration="30.00" until="687.0"/> <!-- Pont de l'Union -->
    </route>
    <route id="bus_M5:Ramingao" edges="153652 152279 -152551 -153353#2 -153353#1 -153353#0 -152235 -152989#1 -152989#0" >
        <stop busStop="131141" duration="30.00" until="44.0"/> <!-- Pont de l'Union -->
        <stop busStop="131199" duration="30.00" until="136.0"/> <!-- 131199 -->
        <stop busStop="131077" duration="30.00" until="275.0"/> <!-- Le Cirta -->
        <stop busStop="131075" duration="30.00" until="338.0"/> <!-- Mairie -->
        <stop busStop="131153" duration="30.00" until="489.0"/> <!-- 1er Escalier -->
        <stop busStop="131155" duration="30.00" until="553.0"/> <!-- 2e Escalier -->
        <stop busStop="131160" duration="30.00" until="635.0"/> <!-- Ramingao -->
    </route>
    <route id="bus_M3:Turbie" edges="152866#5 153002#0 153002#1 153002#2 153002#3 -152162 -152326#5 -152326#4 -152326#3 -152326#2 -152326#1 -152326#0 -152405#3 -152405#2 -152405#1 -152405#0 -152904#7 -152904#6 -152904#5 -152904#3 -152904#2 -152904#1 -152904#0 153429#1" >
        <stop busStop="131087" duration="30.00" until="53.0"/> <!-- Hopital -->
        <stop busStop="131022" duration="30.00" until="149.0"/> <!-- 131022 -->
        <stop busStop="131033" duration="30.00" until="227.0"/> <!-- 131033 -->
        <stop busStop="131039" duration="30.00" until="317.0"/> <!-- 131039 -->
        <stop busStop="131024" duration="30.00" until="653.0"/> <!-- 131024 -->
        <stop busStop="131040" duration="30.00" until="763.0"/> <!-- 131040 -->
        <stop busStop="131042" duration="30.00" until="847.0"/> <!-- La Turbie Marie -->
    </route>
    <route id="bus_M3:Hospital" edges="153447#7 152904#0 152904#1 152904#2 152904#3 152904#5 152904#6 152904#7 152904#8 152405#1 152405#2 152405#3 152326#0 152326#1 152326#2 152326#3 152326#4 152326#5 152162 -153002#3 -153002#2 -153002#1 -153002#0 -152895#1 152895#1" >
        <stop busStop="131030" duration="30.00" until="71.0"/> <!-- La Turbie Marie -->
        <stop busStop="131038" duration="30.00" until="156.0"/> <!-- 131038 -->
        <stop busStop="131020" duration="30.00" until="270.0"/> <!-- 131020 -->
        <stop busStop="131019" duration="30.00" until="585.0"/> <!-- 131019 -->
        <stop busStop="131037" duration="30.00" until="697.0"/> <!-- 131037 -->
        <stop busStop="131029" duration="30.00" until="773.0"/> <!-- 131029 -->
        <stop busStop="131056" duration="30.00" until="910.0"/> <!-- Hopital -->
    </route>
    <route id="bus_1:Monaco" edges="152345 152578#1 152578#2 152578#3 152578#4 152450#2 152450#3 152450#4 -152449 -152219 -152165 -152601#2 -152601#1 -152601#0 -152663#10 -152663#9 -152649 -152669 -152655 -152647 -152945 -152657 -152663#3 -152663#2 -152663#1 152698#0 152698#1 -152698#1 -152684#2 -152684#1 -152684#0 152668#1 152668#2 -152771#0 152806#0 152806#1 152806#2 152816 152956#1 152956#2 152956#3 152956#4 152956#5 152956#6 152956#7 152956#8 -153269#2 -153269#1 -152131#1 -152131#0 152798 152814#1 152814#2 152814#3 152812#0 152812#1 152812#2 152812#3 152827#0 152827#1 152827#2 152956#5 152956#6 152956#7 152956#8 152956#10 152955#2 152955#3 152955#4 -152813#3 -152813#2 -152813#1 -152813#0 -152772 152759 -152768 -152769" >
        <stop busStop="131167" duration="30.00" until="41.0"/> <!-- Saint-Roman (Bus 1) -->
        <stop busStop="131134" duration="30.00" until="115.0"/> <!-- Carmes -->
        <stop busStop="131125" duration="30.00" until="199.0"/> <!-- La Rousse -->
        <stop busStop="131129" duration="30.00" until="257.0"/> <!-- Place des Moulins -->
        <stop busStop="131135" duration="30.00" until="327.0"/> <!-- Saint-Charles -->
        <stop busStop="131063" duration="30.00" until="407.0"/> <!-- Monte-Carlo -->
        <stop busStop="131064" duration="30.00" until="492.0"/> <!-- Square Beaumarchais -->
        <stop busStop="131133" duration="30.00" until="559.0"/> <!-- Ostende -->
        <stop busStop="131061" duration="30.00" until="623.0"/> <!-- Place Sainte-Devote (Gare) -->
        <stop busStop="131123" duration="30.00" until="675.0"/> <!-- Princesse Florestine -->
        <stop busStop="131119" duration="30.00" until="772.0"/> <!-- Place d'Armes (Port) -->
        <stop busStop="131117" duration="30.00" until="988.0"/> <!-- Monaco Ville (le Rocher) -->
    </route>
    <route id="bus_2:Monaco" edges="152892 152810#1 152810#2 152810#3 152810#4 152810#5 152810#6 152810#7 152810#8 152810#9 152810#10 152810#11 152755 152226 152781#0 152815 152940#2 152230 152697#0 152697#1 152697#2 152697#3 152697#4 152697#5 152699 152700 152698#0 152698#1 -152698#1 -152684#2 -152684#1 -152684#0 152668#1 152668#2 -152771#0 152806#0 152806#1 152806#2 152816 152956#1 152956#2 152956#3 152956#4 152956#5 152956#6 152956#7 152956#8 152956#10 152955#2 152955#3 152955#4 -152813#3 -152813#2 -152813#1 -152813#0 -152772 152759 -152768 -152769" >
        <stop busStop="131138" duration="30.00" until="37.0"/> <!-- Jardin Exotique -->
        <stop busStop="131049" duration="30.00" until="121.0"/> <!-- Villa Paloma -->
        <stop busStop="131139" duration="30.00" until="158.0"/> <!-- Rotondes -->
        <stop busStop="131070" duration="30.00" until="223.0"/> <!-- Moneghetti -->
        <stop busStop="131113" duration="30.00" until="283.0"/> <!-- Belgique -->
        <stop busStop="131080" duration="30.00" until="364.0"/> <!-- Pont Sainte-Devote -->
        <stop busStop="131202" duration="30.00" until="427.0"/> <!-- Roqueville -->
        <stop busStop="131063" duration="30.00" until="505.0"/> <!-- Monte-Carlo -->
        <stop busStop="131064" duration="30.00" until="590.0"/> <!-- Square Beaumarchais -->
        <stop busStop="131133" duration="30.00" until="657.0"/> <!-- Ostende -->
        <stop busStop="131061" duration="30.00" until="739.0"/> <!-- Place Sainte-Devote (Gare) -->
        <stop busStop="131123" duration="30.00" until="789.0"/> <!-- Princesse Florestine -->
        <stop busStop="131085" duration="30.00" until="881.0"/> <!-- Place d'Armes (vers Monaco Ville) -->
        <stop busStop="131117" duration="30.00" until="981.0"/> <!-- Monaco Ville (le Rocher) -->
    </route>
    <route id="bus_1:SaintRoman" edges="-152769 152769 152768 -152759 152772 152813#0 152813#1 152813#2 152813#3 152955#5 152955#1 152955#2 152955#3 -152817#2 -152817#1 -152817#0 152133#6 152133#7 -152135 152314#4 152305 152308#3 -152301 152956#5 152956#6 152956#7 152956#8 -153269#2 -153269#1 -152131#1 -152131#0 152798 152814#1 152814#2 152814#3 152385 152383 152812#1 152812#2 152812#3 152812#4 152812#5 152783#0 152783#1 152783#2 152758 152285 152658 152650#2 152650#3 152650#4 152666#3 152673#0 152673#1 152673#2 152673#3 152673#4 152673#5 -152653#2 -152653#1 -152653#0 152663#1 152663#2 152663#3 152663#4 152663#5 152663#6 152663#7 152663#8 152663#9 152663#10 152663#11 152601#1 152601#2 152165 152219 152449 152450#1 -152578#4 -152578#3 -152578#2 152345" >
        <stop busStop="131117" duration="30.00" until="40.0"/> <!-- Monaco Ville (le Rocher) -->
        <stop busStop="131119" duration="30.00" until="299.0"/> <!-- Place d'Armes (Port) -->
        <stop busStop="131045" duration="30.00" until="370.0"/> <!-- Princesse Stephanie -->
        <stop busStop="131093" duration="30.00" until="423.0"/> <!-- Stade Nautique -->
        <stop busStop="131094" duration="30.00" until="479.0"/> <!-- Princesse Antoinette -->
        <stop busStop="131095" duration="30.00" until="566.0"/> <!-- Kennedy -->
        <stop busStop="131096" duration="30.00" until="630.0"/> <!-- Auditorium Rainier III -->
        <stop busStop="131044" duration="30.00" until="716.0"/> <!-- Portier -->
        <stop busStop="131052" duration="30.00" until="787.0"/> <!-- Spelugues -->
        <stop busStop="131051" duration="30.00" until="845.0"/> <!-- Citronniers -->
        <stop busStop="131060" duration="30.00" until="896.0"/> <!-- Place du Casino -->
        <stop busStop="131058" duration="30.00" until="976.0"/> <!-- Monte-Carlo (Tourisme) -->
        <stop busStop="131062" duration="30.00" until="1036.0"/> <!-- Saint-Charles -->
        <stop busStop="131130" duration="30.00" until="1102.0"/> <!-- Place des Moulins -->
        <stop busStop="131128" duration="30.00" until="1163.0"/> <!-- La Rousse -->
        <stop busStop="131126" duration="30.00" until="1234.0"/> <!-- Carmes -->
        <stop busStop="131167" duration="30.00" until="1303.0"/> <!-- Saint-Roman (Bus 1) -->
    </route>
    <route id="bus_5:Larvotto" edges="152895#1 152895#2 -152866#4 -152866#3 -152866#2 -152866#1 -152866#0 153548#3 153548#0 152941#0 152941#1 152941#2 152810#11 152755 152226 152781#0 152815 152940#2 152230 152697#0 152697#1 152697#2 152697#3 152697#4 152697#5 152699 152700 152663#1 152663#2 152663#3 -152664#2 -152664#1 -152664#0 -152673#4 -152673#3 -152673#2 -152673#1 -152673#0 152650#0 152650#1 152650#2 152530#0 152530#2 152530#4 152530#5 152530#6 152530#7" >
        <stop busStop="131056" duration="30.00" until="55.0"/> <!-- Hopital -->
        <stop busStop="131106" duration="30.00" until="116.0"/> <!-- Observatoire -->
        <stop busStop="131201" duration="30.00" until="174.0"/> <!-- Parc Princesse Antoinette -->
        <stop busStop="131107" duration="30.00" until="233.0"/> <!-- Bosio -->
        <stop busStop="131124" duration="30.00" until="306.0"/> <!-- Belgique -->
        <stop busStop="131080" duration="30.00" until="389.0"/> <!-- Pont Sainte-Devote -->
        <stop busStop="131202" duration="30.00" until="453.0"/> <!-- Roqueville -->
        <stop busStop="131058" duration="30.00" until="557.0"/> <!-- Monte-Carlo (Tourisme) -->
        <stop busStop="131127" duration="30.00" until="635.0"/> <!-- Place du Casino -->
        <stop busStop="131088" duration="30.00" until="708.0"/> <!-- Spelugues -->
        <stop busStop="131044" duration="30.00" until="770.0"/> <!-- Portier -->
        <stop busStop="131109" duration="30.00" until="832.0"/> <!-- Grimaldi Forum/Villa Sauber -->
        <stop busStop="131132" duration="30.00" until="901.0"/> <!-- Plages -->
        <stop busStop="131110" duration="30.00" until="957.0"/> <!-- Sea Club -->
        <stop busStop="131084" duration="30.00" until="1011.0"/> <!-- Larvotto -->
    </route>
    <route id="bus_2:Jardin" edges="-152769 152769 152768 -152759 152772 152813#0 152813#1 152813#2 152813#3 152955#5 152955#1 152955#2 152955#3 -152817#2 -152817#1 -152817#0 152133#6 152133#7 -152135 152314#4 152305 152308#3 -152301 152956#5 152956#6 152956#7 152956#8 -153269#2 -153269#1 -152131#1 -152131#0 152798 152814#1 152814#2 152814#3 152385 152383 152812#1 152812#2 152812#3 152812#4 152812#5 -152806#2 -152806#1 -152806#0 152771#0 152771#2 152771#3 152771#4 152771#5 -152698#1 -152698#0 152663#1 152663#2 152663#3 152710 152170#0 152170#1 -152697#5 -152697#4 -152697#3 -152697#2 -152697#1 -152697#0 152225 152939#0 152939#1 -152810#11 -152810#10 -152810#9 -152810#8 -152810#7 -152810#6 -152810#5 -152810#4 -152810#3 -152810#2 152892" >
        <stop busStop="131117" duration="30.00" until="39.0"/> <!-- Monaco Ville (le Rocher) -->
        <stop busStop="131119" duration="30.00" until="295.0"/> <!-- Place d'Armes (Port) -->
        <stop busStop="131045" duration="30.00" until="367.0"/> <!-- Princesse Stephanie -->
        <stop busStop="131093" duration="30.00" until="420.0"/> <!-- Stade Nautique -->
        <stop busStop="131094" duration="30.00" until="475.0"/> <!-- Princesse Antoinette -->
        <stop busStop="131097" duration="30.00" until="562.0"/> <!-- Ostende -->
        <stop busStop="131092" duration="30.00" until="624.0"/> <!-- Terrasses du Casino -->
        <stop busStop="131058" duration="30.00" until="721.0"/> <!-- Monte-Carlo (Tourisme) -->
        <stop busStop="131091" duration="30.00" until="808.0"/> <!-- Cremaillere -->
        <stop busStop="131098" duration="30.00" until="887.0"/> <!-- Roqueville -->
        <stop busStop="131048" duration="30.00" until="957.0"/> <!-- Pont Sainte-Devote -->
        <stop busStop="131120" duration="30.00" until="1018.0"/> <!-- Belgique -->
        <stop busStop="131099" duration="30.00" until="1074.0"/> <!-- Moneghetti -->
        <stop busStop="131136" duration="30.00" until="1139.0"/> <!-- Rotondes -->
        <stop busStop="131050" duration="30.00" until="1188.0"/> <!-- Villa Paloma -->
        <stop busStop="131138" duration="30.00" until="1273.0"/> <!-- Jardin Exotique -->
    </route>
    <route id="bus_6:Fontvieille" edges="152530#7 152531#0 152531#1 152531#2 152531#4 152531#6 152650#4 152666#3 152673#0 152673#1 152673#2 152673#3 152673#4 152673#5 -152653#2 -152653#1 -152653#0 152698#0 152698#1 -152698#1 -152684#2 -152684#1 -152684#0 152668#1 152668#2 -152771#0 152806#0 152806#1 152806#2 152816 152956#1 152956#2 152956#3 152956#4 152956#5 152956#6 152956#7 152956#8 -153269#2 -153269#1 -152131#1 -152131#0 152798 152814#1 152814#2 152814#3 152385 152785#0 -152785#0 152464 152292 153636 153635" >
        <stop busStop="131084" duration="30.00" until="47.0"/> <!-- Larvotto -->
        <stop busStop="131210" duration="30.00" until="111.0"/> <!-- Sea Club -->
        <stop busStop="131081" duration="30.00" until="172.0"/> <!-- Plages -->
        <stop busStop="131111" duration="30.00" until="231.0"/> <!-- Grimaldi Forum/Villa Sauber -->
        <stop busStop="131083" duration="30.00" until="288.0"/> <!-- Portier -->
        <stop busStop="131052" duration="30.00" until="359.0"/> <!-- Spelugues -->
        <stop busStop="131051" duration="30.00" until="418.0"/> <!-- Citronniers -->
        <stop busStop="131060" duration="30.00" until="470.0"/> <!-- Place du Casino -->
        <stop busStop="131063" duration="30.00" until="546.0"/> <!-- Monte-Carlo -->
        <stop busStop="131064" duration="30.00" until="632.0"/> <!-- Square Beaumarchais -->
        <stop busStop="131133" duration="30.00" until="700.0"/> <!-- Ostende -->
        <stop busStop="131061" duration="30.00" until="773.0"/> <!-- Place Sainte-Devote (Gare) -->
        <stop busStop="131123" duration="30.00" until="824.0"/> <!-- Princesse Florestine -->
        <stop busStop="131119" duration="30.00" until="921.0"/> <!-- Place d'Armes (Port) -->
        <stop busStop="131122" duration="30.00" until="984.0"/> <!-- Princesse Stephanie -->
        <stop busStop="131089" duration="30.00" until="1086.0"/> <!-- Fontvieille - Centre Commercial -->
    </route>
    <route id="bus_4:Fontvieille" edges="-152345 -152578#1 -152578#0 152572 152215 152342#1 152217 152212 153372 152217 152581#1 152346 152578#0 152578#1 152578#2 152578#3 152578#4 152450#2 152450#3 152450#4 -152449 -152219 -152165 -152601#2 -152601#1 -152601#0 -152663#10 -152663#9 -152649 -152669 -152655 -152647 -152945 -152657 152710 152170#0 152170#1 -152697#5 -152697#4 -152697#3 -152697#2 -152697#1 -152697#0 152225 152939#0 152789 152781#2 152163 152965#0 152965#1 152965#2 152965#3 -152791#1 152820#0 152820#1 152133#7 -152135 152314#4 152305 152308#3 -152301 152956#5 152956#6 152956#7 152956#8 -153269#2 -153269#1 -152131#1 -152131#0 152798 152814#1 152814#2 152814#3 152385 152785#0 -152785#0 152464 152292 153636 153635" >
        <stop busStop="131086" duration="30.00" until="38.0"/> <!-- Saint-Roman (Bus 4) -->
        <stop busStop="131082" duration="30.00" until="149.0"/> <!-- Varavilla -->
        <stop busStop="131164" duration="30.00" until="214.0"/> <!-- Saint-Roman -->
        <stop busStop="131134" duration="30.00" until="284.0"/> <!-- Carmes -->
        <stop busStop="131125" duration="30.00" until="367.0"/> <!-- La Rousse -->
        <stop busStop="131129" duration="30.00" until="425.0"/> <!-- Place des Moulins -->
        <stop busStop="131135" duration="30.00" until="496.0"/> <!-- Saint-Charles -->
        <stop busStop="131091" duration="30.00" until="575.0"/> <!-- Cremaillere -->
        <stop busStop="131098" duration="30.00" until="657.0"/> <!-- Roqueville -->
        <stop busStop="131048" duration="30.00" until="729.0"/> <!-- Pont Sainte-Devote -->
        <stop busStop="131100" duration="30.00" until="797.0"/> <!-- Louis Aureglia -->
        <stop busStop="131046" duration="30.00" until="861.0"/> <!-- Castelleretto -->
        <stop busStop="131047" duration="30.00" until="923.0"/> <!-- Honore II -->
        <stop busStop="131119" duration="30.00" until="1082.0"/> <!-- Place d'Armes (Port) -->
        <stop busStop="131122" duration="30.00" until="1144.0"/> <!-- Princesse Stephanie -->
        <stop busStop="131089" duration="30.00" until="1239.0"/> <!-- Fontvieille - Centre Commercial -->
    </route>
    <route id="bus_5:Hopital" edges="152530#7 152531#0 152531#1 152531#2 152531#4 152531#6 152650#4 152666#3 152673#0 152673#1 152673#2 152673#3 152673#4 152673#5 -152653#2 -152653#1 -152653#0 152663#1 152663#2 152663#3 152710 152170#0 152170#1 -152697#5 -152697#4 -152697#3 -152697#2 -152697#1 -152697#0 152225 152939#0 152939#1 -152810#11 -152941#2 -152941#1 -152941#0 153548#1 153548#2 152866#0 152866#1 152866#2 152866#3 152866#4 152866#5 -152895#1 -152895#0 152398#0 152398#1 152398#2 152934#0 -152934#0 152398#3 152895#0 152895#1" >
        <stop busStop="131084" duration="30.00" until="46.0"/> <!-- Larvotto -->
        <stop busStop="131210" duration="30.00" until="111.0"/> <!-- Sea Club -->
        <stop busStop="131081" duration="30.00" until="172.0"/> <!-- Plages -->
        <stop busStop="131111" duration="30.00" until="232.0"/> <!-- Grimaldi Forum/Villa Sauber -->
        <stop busStop="131083" duration="30.00" until="290.0"/> <!-- Portier -->
        <stop busStop="131052" duration="30.00" until="360.0"/> <!-- Spelugues -->
        <stop busStop="131051" duration="30.00" until="422.0"/> <!-- Citronniers -->
        <stop busStop="131060" duration="30.00" until="475.0"/> <!-- Place du Casino -->
        <stop busStop="131058" duration="30.00" until="606.0"/> <!-- Monte-Carlo (Tourisme) -->
        <stop busStop="131091" duration="30.00" until="689.0"/> <!-- Cremaillere -->
        <stop busStop="131098" duration="30.00" until="771.0"/> <!-- Roqueville -->
        <stop busStop="131048" duration="30.00" until="840.0"/> <!-- Pont Sainte-Devote -->
        <stop busStop="131204" duration="30.00" until="913.0"/> <!-- Belgique -->
        <stop busStop="131108" duration="30.00" until="972.0"/> <!-- Bosio -->
        <stop busStop="131200" duration="30.00" until="1045.0"/> <!-- Parc Princesse Antoinette -->
        <stop busStop="131087" duration="30.00" until="1122.0"/> <!-- Hopital -->
        <stop busStop="131057" duration="30.00" until="1213.0"/> <!-- Athanee -->
        <stop busStop="131056" duration="30.00" until="1286.0"/> <!-- Hopital -->
    </route>
    <route id="bus_3:Fontvieille" edges="152832#6 152810#3 152810#4 152810#5 152810#6 152810#7 152810#8 152810#9 152810#10 -152941#2 -152941#1 -152941#0 153548#1 153548#2 152866#0 152866#1 152866#2 152866#3 152866#4 152866#5 -152895#1 -152895#0 152398#0 152398#1 152398#2 152934#0 152934#1 152934#2 152415#1 152304 152314#3 152135 152133#0 152133#1 152133#2 152133#3 152133#4 152133#5 152817#0 152817#1 152817#2 152955#4 152955#5 152955#1 152955#2 152955#3 -152817#2 -152817#1 -152817#0 152133#6 152133#7 -152135 152314#4 152305 152308#3 -152301 152956#5 152956#6 152956#7 152956#8 -153269#2 -153269#1 -152131#1 -152131#0 152798 152814#1 152814#2 152814#3 152385 152785#0 -152785#0 152464 152292 153636 153635" >
        <stop busStop="131112" duration="30.00" until="44.0"/> <!-- Hector Otto -->
        <stop busStop="131049" duration="30.00" until="138.0"/> <!-- Villa Paloma -->
        <stop busStop="131137" duration="30.00" until="194.0"/> <!-- Rotondes -->
        <stop busStop="131070" duration="30.00" until="244.0"/> <!-- Moneghetti -->
        <stop busStop="131113" duration="30.00" until="302.0"/> <!-- Belgique -->
        <stop busStop="131204" duration="30.00" until="352.0"/> <!-- Belgique -->
        <stop busStop="131108" duration="30.00" until="409.0"/> <!-- Bosio -->
        <stop busStop="131200" duration="30.00" until="480.0"/> <!-- Parc Princesse Antoinette -->
        <stop busStop="131087" duration="30.00" until="555.0"/> <!-- Hopital -->
        <stop busStop="131118" duration="30.00" until="632.0"/> <!-- Athanee -->
        <stop busStop="131055" duration="30.00" until="710.0"/> <!-- Cimetiere -->
        <stop busStop="131116" duration="30.00" until="835.0"/> <!-- Place d'Armes (Charles III) -->
        <stop busStop="131119" duration="30.00" until="1016.0"/> <!-- Place d'Armes (Port) -->
        <stop busStop="131122" duration="30.00" until="1078.0"/> <!-- Princesse Stephanie -->
        <stop busStop="131089" duration="30.00" until="1173.0"/> <!-- Fontvieille - Centre Commercial -->
    </route>
    <route id="bus_6:Larvotto" edges="153635 152870#4 152870#5 152870#0 152447 152454#0 152454#1 152454#2 152394#0 152394#1 152642 -152294 -152869#3 -152869#2 -152869#1 -152869#0 152979 152978#3 -152896#1 -152896#0 152971#3 152971#4 152879#0 152879#1 152879#2 152870#5 152870#0 152870#1 152870#2 153634 152293#0 152293#0-AddedOffRampEdge 152293#1 152963 152812#2 152812#3 152812#4 152812#5 -152806#2 -152806#1 -152806#0 152771#0 152771#2 152771#3 152771#4 152771#5 -152698#1 -152698#0 152663#1 152663#2 152663#3 -152664#2 -152664#1 -152664#0 -152673#4 -152673#3 -152673#2 -152673#1 -152673#0 152650#0 152650#1 152650#2 152530#0 152530#2 152530#4 152530#5 152530#6 152530#7" >
        <stop busStop="131089" duration="30.00" until="45.0"/> <!-- Fontvieille - Centre Commercial -->
        <stop busStop="131103" duration="30.00" until="124.0"/> <!-- Papalins -->
        <stop busStop="131059" duration="30.00" until="194.0"/> <!-- Roseraie -->
        <stop busStop="131102" duration="30.00" until="248.0"/> <!-- Heliport -->
        <stop busStop="131203" duration="30.00" until="309.0"/> <!-- Stade Louis II -->
        <stop busStop="131209" duration="30.00" until="402.0"/> <!-- Albert II -->
        <stop busStop="131104" duration="30.00" until="469.0"/> <!-- Port de Fontvieille -->
        <stop busStop="131093" duration="30.00" until="557.0"/> <!-- Stade Nautique -->
        <stop busStop="131094" duration="30.00" until="613.0"/> <!-- Princesse Antoinette -->
        <stop busStop="131097" duration="30.00" until="700.0"/> <!-- Ostende -->
        <stop busStop="131092" duration="30.00" until="762.0"/> <!-- Terrasses du Casino -->
        <stop busStop="131058" duration="30.00" until="857.0"/> <!-- Monte-Carlo (Tourisme) -->
        <stop busStop="131127" duration="30.00" until="935.0"/> <!-- Place du Casino -->
        <stop busStop="131088" duration="30.00" until="1009.0"/> <!-- Spelugues -->
        <stop busStop="131044" duration="30.00" until="1071.0"/> <!-- Portier -->
        <stop busStop="131109" duration="30.00" until="1132.0"/> <!-- Grimaldi Forum/Villa Sauber -->
        <stop busStop="131132" duration="30.00" until="1202.0"/> <!-- Plages -->
        <stop busStop="131110" duration="30.00" until="1259.0"/> <!-- Sea Club -->
        <stop busStop="131084" duration="30.00" until="1313.0"/> <!-- Larvotto -->
    </route>
    <route id="bus_4:SaintRoman" edges="153635 152870#4 152870#5 152870#0 152447 152454#0 152454#1 152454#2 152394#0 152394#1 152642 -152294 -152869#3 -152869#2 -152869#1 -152869#0 152979 152978#3 152978#4 152969 -152891#1 -153472#0 152414 152266 152415#0 152415#1 152304 152314#3 152135 152133#0 152133#1 152133#2 152133#3 152133#4 152133#5 152817#0 152817#1 152817#2 152955#4 152955#5 152775 152814#0 152814#1 152814#2 152814#3 152812#0 152812#1 152812#2 152812#3 152812#4 152812#5 -152806#2 -152806#1 -152806#0 152771#0 -152377 -152712 -152763#3 -152763#2 -152763#1 -152763#0 -152697#0 152225 152939#0 152789 152781#2 152163 152965#0 -152965#0 -152163 152940#0 152940#1 152940#2 152230 152697#0 152697#1 152697#2 152697#3 152697#4 152697#5 152699 152700 152663#1 152663#2 152663#3 152663#4 152663#5 152663#6 152663#7 152663#8 152663#9 152663#10 152663#11 152601#1 152601#2 152165 152219 152449 152450#1 -152578#4 -152578#3 -152578#2 -152578#1 -152345" >
        <stop busStop="131089" duration="30.00" until="45.0"/> <!-- Fontvieille - Centre Commercial -->
        <stop busStop="131103" duration="30.00" until="124.0"/> <!-- Papalins -->
        <stop busStop="131059" duration="30.00" until="195.0"/> <!-- Roseraie -->
        <stop busStop="131102" duration="30.00" until="248.0"/> <!-- Heliport -->
        <stop busStop="131203" duration="30.00" until="308.0"/> <!-- Stade Louis II -->
        <stop busStop="131189" duration="30.00" until="399.0"/> <!-- Cimetiere -->
        <stop busStop="131116" duration="30.00" until="518.0"/> <!-- Place d'Armes (Charles III) -->
        <stop busStop="131101" duration="30.00" until="811.0"/> <!-- Castelleretto -->
        <stop busStop="131036" duration="30.00" until="867.0"/> <!-- Louis Aureglia -->
        <stop busStop="131080" duration="30.00" until="940.0"/> <!-- Pont Sainte-Devote -->
        <stop busStop="131202" duration="30.00" until="1013.0"/> <!-- Roqueville -->
        <stop busStop="131058" duration="30.00" until="1111.0"/> <!-- Monte-Carlo (Tourisme) -->
        <stop busStop="131062" duration="30.00" until="1171.0"/> <!-- Saint-Charles -->
        <stop busStop="131130" duration="30.00" until="1237.0"/> <!-- Place des Moulins -->
        <stop busStop="131128" duration="30.00" until="1299.0"/> <!-- La Rousse -->
        <stop busStop="131126" duration="30.00" until="1370.0"/> <!-- Carmes -->
        <stop busStop="131086" duration="30.00" until="1441.0"/> <!-- Saint-Roman (Bus 4) -->
    </route>