<?xml version="1.0" encoding="UTF-8"?>

<!-- 
    Monaco SUMO Traffic (MoST) Scenario
    Copyright (C) 2018 
    Lara CODECA

    This program is free software: you can redistribute it and/or modify
    it under the terms of the GNU General Public License as published by
    the Free Software Foundation, either version 3 of the License, or
    (at your option) any later version.

    This program is distributed in the hope that it will be useful,
    but WITHOUT ANY WARRANTY; without even the implied warranty of
    MERCHANTABILITY or FITNESS FOR A PARTICULAR PURPOSE.  See the
    GNU General Public License for more details.

    You should have received a copy of the GNU General Public License
    along with this program.  If not, see <http://www.gnu.org/licenses/>.
-->

<routes xmlns:xsi="http://www.w3.org/2001/XMLSchema-instance" xsi:noNamespaceSchemaLocation="http://sumo.dlr.de/xsd/routes_file.xsd">
    <vehicle id="evehicle_1_191" type="evehicle" depart="18331.00" departLane="best">
        <route edges="821#2 -790#5 -790#4 -790#3 -790#2 -790#1 -790#0 1499#3 1499#0 869#0 869#1 869#2 733#13 677 738 868#2 619#0 619#1 619#2 619#3 619#4 619#5 621 622 584#1 584#2 584#3 584#4 584#5 584#6 584#7 584#8 584#9 584#10 584#11 584#12 520#1 520#2 525#0 532 -521#1"/>
    </vehicle>
    <vehicle id="evehicle_2_1" type="evehicle" depart="18825.00" departLane="best">
        <route edges="1404#0 1404#1 1404#2 1404#3 1404#4 1404#5 -1418#11 -1418#10 -1418#9 -1418#8 -1418#7 -1418#6 -1418#5 -1418#3 -1418#2 -1418#1 -1418#0 312 153 313#0 313#1 193 204#3 204#4 194 198#3 198#0 154 317#0 317#1 71#0 -274#0 862#3 862#4 862#0 862#1 -729#2 -729#1 -729#0 693#0 693#1 693#2 693#3 693#4 693#5 -620#1 -620#0 584#1 584#2 584#3 632#0 632#1 623#2 596 447 563#0 564#0 564#1 564#2 564#3 564#4 564#5 564#6 240#2 240#3 -416#1 -521#12 -521#11 -521#10 -521#9 -521#8 -521#6 -521#5 -521#4"/>
    </vehicle>
    <vehicle id="evehicle_2_220" type="evehicle" depart="18858.00" departLane="best">
        <route edges="-1382#3 -1382#2 -1382#1 -1383#3 -1383#2 -1383#1 1385 731#1 731#2 731#3 731#4 731#5 733#9 720 700 1499#2 1499#3 746#0 746#1 893#1 893#2 893#3 893#4 893#5 -714#1 743#0 743#1 6#7 6#0 6#1 6#2 -776 182 -820#2 -820#1 -820#0 1510 900#2 900#3 900#4 803#0"/>
    </vehicle>
    <vehicle id="evehicle_2_133" type="evehicle" depart="18924.00" departLane="best">
        <route edges="1325#3 1325#4 1325#5 1325#6 544#1 1328#3 1328#5 -544#0 -1325#5 -1325#4 -1325#3 -1325#2 -1325#1 -1325#0 1324#1 1324#2 1324#3 1324#4 1310#0 1310#1 190#0 190#1 -1313#4 -1313#3 -1313#2 1423#0 1423#1 1423#2 1423#3 1423#4 1423#5 1423#6 1423#7 497#1 236 494#0 494#1 494#2 494#3 494#4 350#2 350#3 521#0 -525#1 532 521#2 521#3 521#4"/>
    </vehicle>
    <vehicle id="evehicle_2_309" type="evehicle" depart="19000.00" departLane="best">
        <route edges="-1418#16 -1418#13 -1418#12 -1418#11 -1418#10 -1418#9 -1418#8 -1418#7 -1418#6 -1418#5 -1418#3 -1418#2 -1418#1 -1418#0 312 153 313#0 313#1 193 204#3 204#4 194 198#3 198#0 154 317#0 317#1 71#0 -274#0 862#3 862#4 862#0 862#1 -729#2 -729#1 -729#0 693#0 693#1 693#2 693#3 693#4 693#5 -620#1 -620#0 584#1 584#2 584#3 632#0 578 873 568"/>
    </vehicle>
    <vehicle id="evehicle_3_218" type="evehicle" depart="19052.00" departLane="best">
        <route edges="916#1 456 -918 -1437 -1298#2 -1295#2 -1295#1 -1295#0 -1300#1 -1300#0 856#3 856#0 856#1 -1257#4 -1257#3 -1257#2 -1257#1 -1257#0 -1304#3 470 -493#4 -493#3 -493#2 -493#1 -493#0 231#1 -491#1 -491#0 -499#2 -499#1 -499#0 522#1 250#3 250#0 250#1 -586#1 587#0 587#1 587#2 587#3 571#0 254 -579 -219 -1494#1"/>
    </vehicle>
    <vehicle id="evehicle_1_101" type="evehicle" depart="19161.00" departLane="best">
        <route edges="803#1 803#2 794#5 794#0 794#1 794#2 794#3 794#4 -803#2 -803#1 -803#0 900#1 -1510 820#0 820#1 820#2 -182 776 6#3 6#4 6#5 6#6 6#7 6#0 6#1 6#2"/>
    </vehicle>
    <vehicle id="evehicle_1_60" type="evehicle" depart="19303.00" departLane="best">
        <route edges="-589 575#1 440#8 571#4 587#3 1496 595#0 595#1 595#2 595#3 595#4 585#0 585#1 585#2 584#5 584#6 584#7 584#8 584#9 584#10 584#11 584#12 520#1 520#2 520#4 95#1 350#1 350#2 530#0 530#1 530#2 -889#0 865#0 865#1 865#2 865#3 865#4 -1321#3 -1321#2 -1321#1 -1321#0"/>
    </vehicle>
    <vehicle id="evehicle_2_14" type="evehicle" depart="19353.00" departLane="best">
        <route edges="951#1 951#2 951#3 1315#1 1315#2 1315#3 1315#4 1315#5 1315#6 1315#7 1315#8 1315#9 1315#10 1315#11 1315#12 1315#13 1315#14 855#1 855#2 855#3 -1340#1 -1340#0 565#0 565#1 565#2 565#3 565#4 565#5 1347#0 1347#1 1347#2 864 602 632#3 -619#5 -619#4 -619#3 -619#2 -619#1 -619#0 102 867#0 867#1 677 738"/>
    </vehicle>
    <vehicle id="evehicle_3_44" type="evehicle" depart="19419.00" departLane="best">
        <route edges="-984#1 982 1394#2 1393#1 1393#2 1393#3 1393#4 1393#5 1393#6 1393#7 1375#1 1366#1 652#0 -654#2 -654#1 -654#0 1332#0 1332#1 1512#0 1512#1 1512#2 1333 1328#1 1328#2 -544#1 -544#0 -1325#5 -1325#4 -1325#3 -1325#2 -1325#1 -1325#0 -1324#0 -1326#0 -1353#5 -1263#6 -1263#5 -1263#4 -1265#11 -1265#10 -1265#9 -1265#8 -1265#7 -1265#6 -1265#5 -1265#4 -1265#2 -1265#1 -1265#0 -1356#2 -1356#0 1354#15 1354#16 1354#17 923 925 624#0 624#2 624#3 698 685#2 685#3 634 270 693#1 693#2 -582"/>
    </vehicle>
    <vehicle id="evehicle_2_298" type="evehicle" depart="19600.00" departLane="best">
        <route edges="-1534#0 -1535 -1523#0 303#1 303#2 303#3 216#0 216#1 216#2 216#3 216#4 216#5 216#6 216#7 216#8 -933#3 -933#2 -933#1 -933#0 -821#1 -821#0 294#0 294#1 294#2 294#3 821#0"/>
    </vehicle>
    <vehicle id="evehicle_1_202" type="evehicle" depart="19659.00" departLane="best">
        <route edges="711 703#2 893#0 893#1 893#2 893#3 893#4 893#5 -714#1 743#0 743#1 6#7 6#0 6#1 6#2 -776 182 -820#2 -820#1 -820#0 1510 900#2 900#3 806#0 890#0 890#1"/>
    </vehicle>
    <vehicle id="evehicle_2_112" type="evehicle" depart="19742.00" departLane="best">
        <route edges="1356#2 1265#0 1265#1 1265#2 -1351#9 -1351#8 -1351#7 -1356#6 -1356#5 -1356#4 -1356#3 -1356#2 -1356#0 1354#15 1354#16 1354#17 923 925 624#0 624#2 624#3 698 685#2 -455 -863#2 -863#1 -863#0 729#1 729#2 862#2 862#3 739 884#1 724#0 -750#1 278#1"/>
    </vehicle>
    <vehicle id="evehicle_1_21" type="evehicle" depart="19786.00" departLane="best">
        <route edges="317#0 317#1 71#0 -274#0 862#3 739 884#1 884#2 884#3 884#4 188 198#0 198#1 198#2 -194 204#1 203 -820#2 -820#1 -820#0 899 807#1 807#2 822#1 907#4 907#0 907#1 907#2 -908 793#0 793#1 793#2 793#3"/>
    </vehicle>
    <vehicle id="evehicle_3_102" type="evehicle" depart="19788.00" departLane="best">
        <route edges="-448 456 -918 -1437 -1298#2 -1295#2 -1295#1 -1295#0 -1300#1 -1300#0 856#3 856#0 -468#6 -468#5 -468#4 -468#3 -468#2 -468#1 -468#0 1313#1 1423#0 1423#1 1423#2 1423#3 1423#4 1423#5 1423#6 1423#7 497#1 236 494#0 494#1 494#2 494#3 494#4 350#2 350#3 350#4 -349 -95#0 -520#2 -520#1 -520#0 -584#11 -584#10 -584#9 -584#8 -584#7 -584#6 -584#5 -585#2 -585#1 -585#0 595#5 566#0 566#1"/>
    </vehicle>
    <vehicle id="evehicle_2_29" type="evehicle" depart="20128.00" departLane="best">
        <route edges="-824#5 -824#4 -824#3 -824#2 -824#1 -824#0 294#1 294#2 294#3 821#0 821#1 821#2 -790#5 -790#4 -790#3 -790#2 -790#1 -790#0 1499#3 1499#0 1499#1 -700 -720 -733#9 -731#5 -731#4 -731#3 -731#2 -731#1"/>
    </vehicle>
    <vehicle id="evehicle_3_23" type="evehicle" depart="20142.00" departLane="best">
        <route edges="-448 456 -918 -1437 -1298#2 -1295#2 -1295#1 -1295#0 -1300#1 -1300#0 856#3 856#0 -468#6 -468#5 -468#4 -468#3 -468#2 -468#1 -468#0 1313#1 1423#0 1423#1 1423#2 1423#3 1423#4 1423#5 1423#6 1423#7 497#1 236 494#0 494#1 494#2 494#3 494#4 350#2 350#3 350#4 -349 -95#0 -520#2 -520#1 -520#0 -584#11 -584#10 -584#9 -584#8 -584#7 -584#6 -584#5 -584#4 632#0 632#1 632#2 632#3 -619#5 -619#4 -619#3 -624#3 -624#2 -624#0 -925 -923 -1354#17 -1354#16 -1354#15 -1354#14 -1354#13 -1354#12 -1354#11 -1354#10 -1354#9 -1354#8 -1354#7 -1354#6 -1354#5 -1354#4 -1354#3 -1354#1"/>
    </vehicle>
    <vehicle id="evehicle_3_215" type="evehicle" depart="20242.00" departLane="best">
        <route edges="456 -918 -1437 -1298#2 -1295#2 -1295#1 -1295#0 -1300#1 -1300#0 856#3 856#0 -468#6 -468#5 -468#4 -468#3 -468#2 -468#1 -468#0 1313#1 1423#0 1423#1 1423#2 1423#3 1423#4 1423#5 1423#6 1423#7 497#1 236 494#0 494#1 494#2 494#3 494#4 350#2 350#3 350#4 -349 -95#0 -520#2 -520#1 -520#0 -584#11 -584#10 -584#9 -584#8 -584#7 -584#6 -584#5 -584#4 -584#3 -584#2 -584#1 620#0 620#1 -693#5 -693#4 -693#3 -693#2 -693#1 -693#0 729#0 729#1 729#2 862#2 862#3 862#4"/>
    </vehicle>
    <vehicle id="evehicle_3_148" type="evehicle" depart="20258.00" departLane="best">
        <route edges="916#1 456 -918 -1437 -1298#2 -1295#2 -1295#1 -1295#0 -1300#1 -1300#0 856#3 856#0 -468#6 -468#5 -468#4 -468#3 -468#2 -468#1 -468#0 1313#1 1423#0 1423#1 1423#2 1423#3 1423#4 1423#5 1423#6 1423#7 497#1 236 494#0 494#1 494#2 494#3 494#4 350#2 350#3 350#4 -349 -95#0 -520#2 -520#1 -520#0 -584#11 -584#10 -584#9 -584#8 -584#7 -584#6 -584#5 -584#4 632#0 632#1 632#2 632#3 -619#5 -619#4 -619#3 -619#2 -619#1 -619#0 102 867#0 711 703#2 893#0 893#1 893#2 893#3"/>
    </vehicle>
    <vehicle id="evehicle_1_140" type="evehicle" depart="20321.00" departLane="best">
        <route edges="354#1 354#2 359#1 440#0 440#2 440#3 440#6 440#8 571#4 587#3 1496 595#0 595#1 595#2 595#3 595#4 595#5 566#0 590#0 590#1 590#2 693#2 -582 -634 -685#3 -685#2 -685#1 -685#0 -619#0 102 867#0 867#1 -733#13 -733#12 -733#11 -733#10 -733#9 -731#5 -731#4 -731#3 -731#2 -731#1 -731#0 1383#1 1383#2 1383#3 -1382#0 1269#0 1269#1 1269#2 1269#3 1269#4 1269#5 1269#6 1269#7 -1261#12 -1261#11 -1261#10 -1261#9 -966 1261#11 1261#12 -1269#7 -1269#6 -1269#5 -1269#4 -1269#3"/>
    </vehicle>
    <vehicle id="evehicle_2_259" type="evehicle" depart="20464.00" departLane="best">
        <route edges="-826#0 303#2 303#3 216#0 216#1 216#2 216#3 216#4 216#5 216#6 216#7 216#8 216#9 216#10 291#1 291#2 823#0 823#1 913 733#0 733#1 733#2 733#3 733#4 733#5 733#6 733#7 733#8 733#9 733#10 733#11 733#12 733#13 677 738 868#2 619#0 619#1 619#2 619#3 619#4 619#5 621 623#0 623#1 623#2 596 447 563#0 563#1 563#2 1346#0 1346#1 1346#2 1346#3"/>
    </vehicle>
    <vehicle id="evehicle_3_179" type="evehicle" depart="20697.00" departLane="best">
        <route edges="451 456 -918 -1437 -1298#2 -1295#2 -1295#1 -1295#0 -1300#1 -1300#0 856#3 856#0 -468#6 -468#5 -468#4 -468#3 -468#2 -468#1 -468#0 1313#1 1313#2 1313#3 1313#4 -190#1 -190#0 -475 476#0 476#1 1315#1 1315#2 1315#3 1315#4 1315#5 1315#6 1315#7 1315#8 1315#9 1315#10 1315#11 1315#12 1315#13 1315#14 855#1 855#2 855#3 -1340#1 -922#8 -922#7 -922#6 -922#5 -922#4 -922#3 -922#2 -922#0 -1265#4 -1265#2 -1265#1"/>
    </vehicle>
    <vehicle id="evehicle_1_117" type="evehicle" depart="20823.00" departLane="best">
        <route edges="867#1 -733#13 -733#12 -733#11 -733#10 -733#9 -731#5 -731#4 -731#3 -731#2 -731#1 -731#0 1383#1 1388"/>
    </vehicle>
    <vehicle id="evehicle_3_36" type="evehicle" depart="21127.00" departLane="best">
        <route edges="-1335#2 -1335#1 -1335#0 -307#2 -307#1 -307#0 306 338#1 -1377#3 -1377#2 -1377#1 -1377#0 1393#6 1393#7 1375#1 1366#1 652#0 -654#2 -654#1 -654#0 1332#0 1332#1 1512#0 1512#1 1512#2 1333 1328#1 1328#2 -544#1 -544#0 -1325#5 -1325#4 -1325#3 -1325#2 -1325#1 -1325#0 1324#1 1324#2 1324#3 1324#4 1310#0 1310#1 190#0 190#1 -1313#4 -1313#3 -1313#2 1423#0 1423#1 1423#2 1423#3 1423#4 1423#5 1423#6 1423#7 497#1 236 494#0 494#1 494#2 494#3 494#4 350#2 350#3 521#0"/>
    </vehicle>
    <vehicle id="evehicle_1_1" type="evehicle" depart="21153.00" departLane="best">
        <route edges="502#2 494#2 494#3 494#4 350#2 350#3 350#4 -349 -95#0 -520#2 -520#1 -520#0 -584#11 -584#10 -584#9 -584#8 -584#7 -584#6 -584#5 -584#4 632#0 632#1 632#2 632#3 -619#5 -619#4 -619#3 -619#2 -619#1 -619#0 102 867#0 867#1 -733#13 -733#12 -733#11 -733#10 -733#9 -733#8 -733#7 -733#6 -733#5 -733#4 -733#3 -733#2 -733#1"/>
        <stop parkingArea="152610" duration="43200.00"/>
    </vehicle>
    <vehicle id="evehicle_2_159" type="evehicle" depart="21268.00" departLane="best">
        <route edges="938#0 844 -841#0 -1418#21 -1418#20 -1418#19 -1418#18 -1418#17 -1418#16 -1418#13 -1418#12 -1418#11 -1418#10 -1418#9 -1418#8 -1418#7 -1418#6 -1418#5 -1418#3 -1418#2 -1418#1 -1418#0 312 153 313#0 313#1 193 204#3 204#4 194 198#3 198#0 154 317#0 317#1 71#0 -274#0 862#3 862#4 862#0 862#1 -729#2 -729#1 -723 863#1 863#2 455 -685#2 -685#1 -685#0 -619#0"/>
    </vehicle>
    <vehicle id="evehicle_1_118" type="evehicle" depart="21379.00" departLane="best">
        <route edges="-520#0 -584#11 -584#10 -584#9 -584#8 -584#7 -584#6 -584#5 -585#2 -585#1 -585#0 -595#4 -595#3 -595#2 -595#1 -595#0 588 571#1 571#2 439#0 439#2 -248"/>
    </vehicle>
    <vehicle id="evehicle_1_143" type="evehicle" depart="21388.00" departLane="best">
        <route edges="-755#1 -755#0 1386#5 812#1 -183 811#0 811#1 291#0 291#1 291#2 823#0 823#1 206 296 -882 816#1 816#2 907#0 907#1 907#2 907#3 -822#1 -807#2 -1508 1509#1"/>
    </vehicle>
    <vehicle id="evehicle_2_307" type="evehicle" depart="21443.00" departLane="best">
        <route edges="-1261#12 -1261#11 -1261#10 -1261#9 -966 1261#11 1261#12 -1269#7 -1269#6 -1269#5 -1269#4 -1269#3 -1269#2 -1269#1 -1269#0 -1386#0 -1383#3 -1383#2 -1383#1 1385 731#1 731#2 731#3 731#4 731#5 733#9 720 700 1499#2 790#0 790#1 790#2 790#3 790#4 790#5 790#6 933#0"/>
    </vehicle>
    <vehicle id="evehicle_2_120" type="evehicle" depart="21453.00" departLane="best">
        <route edges="-1360 1384#5 886 -1387#1 -1387#0 930#1 931 -895#5 1381#0 1381#1 1381#2 -368#2 -368#1 -368#0 867#0 711 703#2 893#0 893#1 1495#0 1495#1 1495#2 1495#3 744#0 744#1 884#11 883#1 883#2 883#3 883#4 697 737#0 737#1 737#2 737#3 737#4 735#0 735#1 735#2 735#3 750#0"/>
    </vehicle>
    <vehicle id="evehicle_3_157" type="evehicle" depart="21475.00" departLane="best">
        <route edges="456 -918 -1437 -1298#2 -1295#2 -1295#1 -1295#0 -1300#1 -1300#0 856#3 856#0 -468#6 -468#5 -468#4 -468#3 -468#2 -468#1 -468#0 1313#1 1423#0 1423#1 1423#2 1423#3 1423#4 1423#5 1423#6 1423#7 497#1 236 494#0 494#1 494#2 494#3 494#4 350#2 350#3 350#4 -349 -95#0 -520#2 -520#1 -520#0 -584#11 -584#10 -584#9 -584#8 -584#7 -584#6 -584#5 -584#4 632#0 632#1 632#2 632#3 -619#5 -619#4 -619#3 -624#3 -624#2 -624#0 -925 -1502#3 -1502#2 -1502#1 -1502#0 1345#1 1345#3 1345#4 1345#5 1345#6 1345#7 1345#8 1387#0 1387#1 1383#0 1383#1 1388 749#1 749#2 755#7"/>
    </vehicle>
    <vehicle id="evehicle_2_202" type="evehicle" depart="21559.00" departLane="best">
        <route edges="-468#0 1313#1 1313#2 1313#3 1313#4 -190#1 -190#0 -475 476#0 476#1 1315#1 1315#2 1315#3 1315#4 1315#5 1315#6 1315#7 1315#8 1315#9 1315#10 1315#11 1315#12 1315#13 1315#14 855#1 855#2 855#3 -1340#1 -1340#0 1354#0 1354#1 1354#3 1354#4 1354#5 1354#6 1354#7 1354#8 1354#9 1354#10"/>
    </vehicle>
    <vehicle id="evehicle_1_137" type="evehicle" depart="21571.00" departLane="best">
        <route edges="703#2 893#0 -746#1 -746#0"/>
    </vehicle>
    <vehicle id="evehicle_1_102" type="evehicle" depart="21667.00" departLane="best">
        <route edges="735#0 735#1 735#2 735#3 750#0 750#1 750#2 188 198#0 198#1 198#2 -194 204#1 204#2 -193 164 435 216#8 216#9 216#10 291#1 291#2 291#3 -811#1 -811#0 183 -812#1 -812#0 755#0 755#1 755#2 -283 -755#3 -755#2 -755#1 -755#0 1386#5"/>
    </vehicle>
    <vehicle id="evehicle_2_172" type="evehicle" depart="21731.00" departLane="best">
        <route edges="-772 935#3 935#4 935#5 935#6 300 1592#1 929#0 757 932#1 1597 216#0 216#1 216#2 216#3 216#4 216#5 216#6 216#7 216#8 -933#3 -933#2 -933#1 -933#0 -821#1 -821#0 294#0 294#1 294#2 861#0 861#1 861#2 313#1 193 204#3 8 6#0 6#1 6#2 6#3 6#4 6#5 740#0 740#2 883#3 -736#3 -736#2 -736#1 -736#0 -694 681 678 718 722 -725 -706 -788 -783 -789 -797 -800"/>
    </vehicle>
    <vehicle id="evehicle_3_147" type="evehicle" depart="21742.00" departLane="best">
        <route edges="1278 -1277 -1282#0 916#1 456 -918 -1437 -1298#2 -1295#2 -1295#1 -1295#0 -1300#1 -1300#0 856#3 856#0 -468#6 -468#5 -468#4 -468#3 -468#2 -468#1 -468#0 1313#1 1423#0 1423#1 1423#2 1423#3 1423#4 1423#5 1423#6 1423#7 497#1 236 494#0 494#1 494#2 494#3 494#4 350#2 350#3 350#4 -349 -95#0 -520#2 -520#1 -520#0 -584#11 -584#10 -584#9 -584#8 -584#7 -584#6 -584#5 -584#4 -584#3 -584#2 -584#1 620#0 620#1 -693#5 -693#4 -693#3 -693#2 -693#1 -693#0 729#0 729#1 729#2 862#2 862#3 739 884#1 884#2 884#3 884#4 188 198#0 198#1 198#2 -194 204#1 203 -820#2 -820#1 -820#0 899 807#1 807#2 822#1 907#4 907#0 907#1 907#2 -908 793#0 793#1 793#2 793#3"/>
    </vehicle>
    <vehicle id="evehicle_2_45" type="evehicle" depart="21775.00" departLane="best">
        <route edges="1419#1 185 1276 186 -1418#27 -1418#26 -1418#25 -1418#24 -1418#23 -1418#21 -1418#20 -1418#19 -1418#18 -1418#17 -1418#16 -1418#13 -1418#12 -1418#11 -1418#10 -1418#9 -1418#8 -1418#7 -1418#6 -1418#5 -1418#3 -1418#2 -1418#1 -816#0"/>
    </vehicle>
    <vehicle id="evehicle_2_155" type="evehicle" depart="21824.00" departLane="best">
        <route edges="-988#0 1322#6 1322#7 -1324#1 -1324#0 -1326#0 -1353#5 -1263#6 -1263#5 -1263#4 -1265#11 -1265#10 -1265#9 -1265#8 -1265#7 -1265#6 -1265#5 -1265#4 -1351#9 -1351#8 -1351#7 -1356#6 -1356#5 -1356#4 -1356#3"/>
    </vehicle>
    <vehicle id="evehicle_2_215" type="evehicle" depart="21903.00" departLane="best">
        <route edges="936#4 936#5 936#6 936#7 294#2 294#3 821#0 821#1 821#2 -790#5 -790#4 -790#3 -790#2 -790#1 -790#0 1499#3 1499#0 869#0 869#1 869#2 733#13 677 738 868#2 619#0 619#1 619#2 -624#3 -624#2 -624#0 -925 -923 -1354#17 -1354#16 -1354#15 1356#0 1356#2 1265#0 1265#1 1265#2 1265#4 922#0 922#2 922#3 922#4"/>
    </vehicle>
    <vehicle id="evehicle_1_5" type="evehicle" depart="21947.00" departLane="best">
        <route edges="571#1 571#2 571#3 571#4 587#3 1496 595#0 595#1 595#2 595#3 595#4 595#5 566#0 590#0 590#1 590#2 693#2 -582 -634 -685#3 -685#2 -685#1 -685#0 -619#0 102 867#0 867#1"/>
    </vehicle>
    <vehicle id="evehicle_2_154" type="evehicle" depart="22039.00" departLane="best">
        <route edges="1312#4 415#4 1322#0 1322#1 1322#2 1322#3 1322#4 1322#5 1322#6 1322#7 -1324#1 -1324#0 -1326#0 -1353#5 -1263#6 -1263#5 -1263#4 -1263#3 -1263#2 -1263#1 -1263#0 855#3 -1340#1 -1340#0 565#0 565#1 565#2 565#3 565#4 565#5 1347#0 1347#1 1347#2 597 596 447 563#0 564#0 564#1 564#2 564#3 564#4 564#5 564#6 240#2 240#3 240#4 1320"/>
    </vehicle>
    <vehicle id="evehicle_1_211" type="evehicle" depart="22056.00" departLane="best">
        <route edges="715#0 715#1 -1495#2 -1495#1 -1495#0 -893#1 -893#0 868#0 868#1 868#2 102 867#0 867#1 677"/>
    </vehicle>
    <vehicle id="evehicle_3_62" type="evehicle" depart="22111.00" departLane="best">
        <route edges="-1335#4 -1335#3 -1335#2 -1335#1 -1335#0 -307#2 -307#1 -307#0 306 338#1 -1377#3 -1377#2 -1377#1 -1377#0 1393#6 1393#7 1375#1 1366#1 652#0 -654#2 -654#1 -654#0 1332#0 1332#1 1512#0 1512#1 1512#2 1333 1328#1 1328#2 -544#1 -544#0 -1325#5 -1325#4 -1325#3 -1325#2 -1325#1 -1325#0 -1324#0 -1326#0 -1353#5 -1263#6 -1263#5 -1263#4 -1265#11 -1265#10 -1265#9 -1265#8 -1265#7 -1265#6 -1265#5 -1265#4 -1265#2 -1265#1 -1265#0 -1356#2 -1356#0 1354#15 1354#16 1354#17 923 925 624#0 624#2 624#3 619#3 619#4 619#5 621 622 574#1 574#2 -595#5 -595#4 -595#3 -595#2 -595#1 -595#0 588 571#1 571#2 439#0 439#2 439#4 439#6 439#7"/>
    </vehicle>
    <vehicle id="evehicle_2_260" type="evehicle" depart="22121.00" departLane="best">
        <route edges="1306#0 1306#1 -467#1 -467#0 1504 -367#0 894#1 489#2 489#3 489#4 14 -1316#0 490#0 490#1 1319#1 1319#2 1317 93 497#1 236 494#0 494#1 494#2 494#3 494#4 350#2 350#3 521#0 -525#1 532 521#2 521#3 521#4 521#5 521#6 521#8 521#9 521#10 521#11 521#12 416#1 240#4"/>
    </vehicle>
    <vehicle id="evehicle_1_23" type="evehicle" depart="22147.00" departLane="best">
        <route edges="893#4 893#5 -714#1 743#0 743#1 6#7 -8 204#4 194 198#3 -188 884#5 884#6 884#7 884#8 -744#1 -744#0 -1495#3 -1495#2 696"/>
    </vehicle>
    <vehicle id="evehicle_1_13" type="evehicle" depart="22312.00" departLane="best">
        <route edges="-590#0 -566#0 -574#2 -574#1 620#0 620#1 -863#5 -685#3 -685#2 -685#1 -685#0 -619#0 102 867#0 867#1 -733#13 -869#2 -869#1 -869#0 1499#1 -700 -720"/>
    </vehicle>
    <vehicle id="evehicle_1_48" type="evehicle" depart="22413.00" departLane="best">
        <route edges="350#2 350#3 521#0 -525#1 532 521#2 521#3 521#4 521#5 521#6 521#8 521#9 -860#4 -507#1"/>
    </vehicle>
    <vehicle id="evehicle_3_189" type="evehicle" depart="22480.00" departLane="best">
        <route edges="935#5 935#6 300 1592#1 929#0 757 932#1 1597 216#0 216#1 216#2 216#3 216#4 216#5 216#6 216#7 216#8 216#9 216#10 291#1 291#2 823#0 823#1 913 733#0 733#1 733#2 -755#8 -755#7 -755#6"/>
    </vehicle>
    <vehicle id="evehicle_3_3" type="evehicle" depart="22535.00" departLane="best">
        <route edges="1398#5 1398#6 1398#7 935#6 300 1592#1 929#0 757 932#1 1597 216#0 216#1 216#2 216#3 216#4 216#5 216#6 216#7 216#8 216#9 216#10 291#1 291#2 823#0 823#1 913 733#0 733#1 733#2 733#3 733#4 733#5 733#6 733#7 733#8 733#9 733#10 733#11 733#12 733#13 677 738 868#2 619#0 619#1 619#2 619#3 619#4 619#5 621 622 574#1 574#2 -595#5 -595#4 594#0 594#1 594#2 375#0"/>
    </vehicle>
    <vehicle id="evehicle_1_73" type="evehicle" depart="22612.00" departLane="best">
        <route edges="277 -274#0 862#3 862#4 862#0 862#1 -729#2 -729#1 -723 863#1 863#2 455 -685#2 -685#1 -685#0 -619#0 102 867#0 867#1 -733#13 -733#12 -733#11 -733#10 -733#9 -733#8 -733#7 -733#6"/>
    </vehicle>
    <vehicle id="evehicle_2_52" type="evehicle" depart="22618.00" departLane="best">
        <route edges="-1354#0 565#0 565#1 565#2 565#3 565#4 565#5 1347#0 1347#1 1347#2 864 602 632#3 -619#5 -619#4 -619#3 -624#3 -624#2 -624#0 -925 -1502#3 -1502#2 -1502#1 -1502#0 1345#1 1345#3 1345#4 1345#5 1345#6 1345#7 1345#8 1387#0 1387#1 1383#0 1383#1 1388 749#1"/>
    </vehicle>
    <vehicle id="evehicle_1_116" type="evehicle" depart="22726.00" departLane="best">
        <route edges="751#4 751#5 751#6 -790#4 -790#3 -790#2 -790#1 -790#0 1499#3 746#0 746#1 893#1 893#2 893#3 893#4 893#5 -714#1 743#0 743#1 6#7 6#0 7 892 -153"/>
    </vehicle>
    <vehicle id="evehicle_1_228" type="evehicle" depart="22804.00" departLane="best">
        <route edges="198#1 198#2 198#3 198#0 154 317#0 317#1 71#0 -274#0 862#3 862#4 862#0 862#1 -729#2 -729#1 -729#0 693#0 693#1 693#2 693#3 693#4 693#5 -620#1 -620#0 584#1 584#2 584#3 584#4 584#5 584#6 584#7 584#8 584#9 584#10 584#11 584#12 520#1 520#2 520#4 95#1 350#1 -494#4 -494#3 -494#2 -494#1 -494#0 488 90 232#1 93 497#1 236 494#0"/>
    </vehicle>
    <vehicle id="evehicle_1_122" type="evehicle" depart="22819.00" departLane="best">
        <route edges="-790#5 -790#4 -790#3 -790#2 -790#1 -790#0 1499#3 746#0 746#1 -893#0 868#0"/>
    </vehicle>
    <vehicle id="evehicle_2_230" type="evehicle" depart="22854.00" departLane="best">
        <route edges="-1365 -1366#2 652#0 -654#2 -654#1 -654#0 1332#0 1332#1 1512#0 1512#1 1512#2 1333 1328#1 1328#2 -544#1 -544#0 -1325#5 -1325#4 -1325#3 -1325#2 -1325#1 -1325#0 -1324#0 -1326#0 -1353#5 -1263#6 -1263#5 -1263#4 -1263#3 -1263#2 -1263#1 -1263#0 855#3 855#4 855#0 -1315#14 -1315#13 -1315#12 -1315#11"/>
    </vehicle>
    <vehicle id="evehicle_3_229" type="evehicle" depart="22862.00" departLane="best">
        <route edges="1399 1401#1 1400#1 932#0 932#1 1597 216#0 216#1 216#2 216#3 216#4 216#5 216#6 216#7 216#8 -933#3 -933#2 -933#1 -933#0 -821#1 -821#0 294#0 294#1 294#2 861#0 861#1 861#2 313#1 193 204#3 204#4 194 198#3 -188 -750#2 724#1 701#0"/>
    </vehicle>
    <vehicle id="evehicle_2_113" type="evehicle" depart="22886.00" departLane="best">
        <route edges="931 -895#5 1381#0 1381#1 1381#2 -368#2 -368#1 -368#0 867#0 711 703#2 893#0 893#1 893#2 893#3 893#4 893#5 -714#1 743#0 743#1 6#7 -8 204#4 204#1 203 -182"/>
    </vehicle>
    <vehicle id="evehicle_3_146" type="evehicle" depart="23104.00" departLane="best">
        <route edges="171 774 286 1597 216#0 216#1 216#2 216#3 216#4 216#5 216#6 216#7 216#8 216#9 216#10 291#1 291#2 291#3 -811#1 -811#0 183 -812#1 -812#0 -1386#4 -1386#3 -1386#2 -1386#1 -1386#0 1382#1 1382#2 1382#3 1382#4 1382#5 1382#6 -134#0 -1364#3 1351#0 1351#1 1351#2 1351#3 1351#4 1351#5 1351#6 1351#7 1351#8 1351#9 1265#4 922#0 922#2 922#3 922#4 922#5"/>
    </vehicle>
    <vehicle id="evehicle_2_175" type="evehicle" depart="23154.00" departLane="best">
        <route edges="1265#0 1265#1 1265#2 -1351#9 -1351#8 -1351#7 -1356#6 -1356#5 -1356#4 -1356#3 -1356#2 -1356#0 1354#15 1354#16 1354#17 923 925 624#0 624#2 624#3 -619#2 -619#1 -619#0 102 867#0 711 703#2 893#0 893#1 1495#0 1495#1 1495#2 1495#3 744#0 744#1 884#11 883#1 883#2 883#3 -736#3 -736#2 -736#1 -736#0 -694 681 678 718 722 -725 -706 -788 -783 -789 -797 -800 -802 -801"/>
    </vehicle>
    <vehicle id="evehicle_1_142" type="evehicle" depart="23171.00" departLane="best">
        <route edges="893#0 893#1 1495#0 1495#1 1495#2 1495#3 744#0 744#1 884#11 883#1 883#2 883#3 -736#3 -736#2 -736#1 -736#0 -694 780 782 779"/>
    </vehicle>
    <vehicle id="evehicle_3_54" type="evehicle" depart="23194.00" departLane="best">
        <route edges="-1277 -1282#0 916#1 456 -918 -1437 -1298#2 -1295#2 -1295#1 -1295#0 -1300#1 -1300#0 856#3 856#0 -468#6 -468#5 -468#4 -468#3 -468#2 -468#1 -468#0 1313#1 1423#0 1423#1 1423#2 1423#3 1423#4 1423#5 1423#6 1423#7 497#1 236 494#0 494#1 494#2 494#3 494#4 350#2 350#3 350#4 -349 -95#0 -520#2 -520#1 -520#0 -584#11 -584#10 -584#9 -584#8 -584#7 -584#6 -584#5 -584#4 632#0 632#1 632#2 632#3 -619#5 -619#4 -619#3 -624#3 -624#2 -624#0 -925 -1502#3 -1502#2 -1502#1 -1502#0"/>
    </vehicle>
    <vehicle id="evehicle_2_35" type="evehicle" depart="23232.00" departLane="best">
        <route edges="216#5 216#6 216#7 216#8 -933#3 -933#2 -933#1 -933#0 -821#1 -821#0 294#0 294#1 294#2 861#0 861#1 861#2 313#1 193 204#3 8 6#0 6#1 6#2 6#3 6#4 6#5 740#0 740#2 883#3 883#4 697 737#0 737#1 737#2 737#3 737#4 281 707#0 316#0 316#1 273#0 269"/>
        <stop parkingArea="152640" duration="43200.00"/>
    </vehicle>
    <vehicle id="evehicle_1_115" type="evehicle" depart="23239.00" departLane="best">
        <route edges="-861#2 -861#1 -861#0 294#3 821#0 821#1 821#2 -790#5 -790#4 -790#3 -790#2 -790#1 -790#0 1499#3 1499#0 869#0 869#1 869#2 733#13 677 738 868#2 619#0 619#1 619#2 -624#3 -624#2 633 629#0 630 394#4 614 603#3"/>
    </vehicle>
    <vehicle id="evehicle_3_161" type="evehicle" depart="23253.00" departLane="best">
        <route edges="825 1419#1 185 1276 186 -1418#27 1422#0 1422#1 1422#2 1422#3 1422#4 1422#5 1422#6 1422#7 1422#8 1422#9 1422#11 216#3 216#4 216#5 216#6 216#7 216#8 216#9 216#10 291#1 291#2 823#0 823#1 913 733#0 733#1 817"/>
    </vehicle>
    <vehicle id="evehicle_1_25" type="evehicle" depart="23266.00" departLane="best">
        <route edges="703#1 703#2 893#0 -746#1 -746#0 1499#0 1499#1 1499#2 790#0 790#1 790#2 790#3 790#4 790#5 790#6 -821#1 -821#0 294#0 294#1 -936#7 -936#6"/>
    </vehicle>
    <vehicle id="evehicle_2_82" type="evehicle" depart="23286.00" departLane="best">
        <route edges="415#1 415#2 415#3 415#4 1322#0 1322#1 1322#2 1322#3 1322#4 1322#5 1322#6 1322#7 -1324#1 -1324#0 -1326#0 -1353#5 -1263#6 -1263#5 -1263#4 -1265#11 -1265#10 -1265#9 -1265#8 -1265#7 -1265#6 -1265#5 -1265#4 -1265#2 -1265#1 -1265#0 -1356#2 -1356#0 1354#15 1354#16 1354#17 923 925 624#0 624#2 624#3 619#3 619#4 619#5 621 622 574#1 574#2 -595#5 585#0 585#1 585#2 -584#4 -584#3"/>
    </vehicle>
    <vehicle id="evehicle_3_184" type="evehicle" depart="23414.00" departLane="best">
        <route edges="420 155 422 431 469 415#3 415#4 1322#0 1322#1 1322#2 1322#3 1322#4 1322#5 1322#6 1322#7 -1324#1 -1324#0 -1326#0 -1353#5 -1353#4 -1353#3 -1353#2 -1353#1 -1353#0 1364#0 1364#1 1364#2 1364#3 1364#4 134#1 -1382#5 -1382#4 -1382#3 -1382#2 -1382#1 -1383#3 -1383#2 1388 749#1 749#2 755#7 755#8 -733#2 -733#1 -733#0"/>
    </vehicle>
    <vehicle id="evehicle_1_172" type="evehicle" depart="23470.00" departLane="best">
        <route edges="731#3 731#4 731#5 733#9 733#10 733#11 733#12 733#13 677 738 868#2 619#0 619#1 619#2 619#3 619#4 619#5 621 622 574#1 574#2 -595#5 -595#4 -595#3 -595#2 -595#1 -595#0 588 571#1 571#2 571#3 571#4 587#3 587#4 165 -173 -679 -174 -719 -175 -713 176 277"/>
    </vehicle>
    <vehicle id="evehicle_2_177" type="evehicle" depart="23501.00" departLane="best">
        <route edges="1369#0 1369#1 1369#2 1369#3 1369#4 1369#5 1369#6 1369#7 1369#8 1369#9 1369#10 1369#11 -830#5 -830#4 -830#3 -830#2 -830#1 -830#0 1375#1 1366#1 652#0 -654#2 -654#1 -654#0 1332#0 1332#1 1512#0 1512#1 1261#0 1261#1 1261#2 1261#3 1261#4 1261#5 1261#6 1261#7 1261#8 1261#9 1261#10 1261#11 1261#12 -1269#7 -1269#6 -1269#5 -1269#4 -1269#3 -1269#2 -1269#1 -1269#0 1386#1 1386#2 1386#3 1386#4 1386#5 812#1 -183 811#0 811#1 291#0 291#1 291#2 823#0 823#1 206 296 -882 816#1 816#2 907#0 907#1 907#2 907#3 -822#1 -822#0 900#3 900#4 803#0 803#1 803#2 794#5 794#0 347"/>
        <stop parkingArea="152633" duration="43200.00"/>
    </vehicle>
    <vehicle id="evehicle_3_178" type="evehicle" depart="23579.00" departLane="best">
        <route edges="916#1 456 -918 -1437 -1298#2 -1295#2 -1295#1 -1295#0 -1300#1 -1300#0 856#3 856#0 -468#6 -468#5 -468#4 -468#3 -468#2 -468#1 -468#0 1313#1 1423#0 1423#1 1423#2 1423#3 1423#4 1423#5 1423#6 1423#7 497#1 236 494#0 494#1 494#2 494#3 494#4 350#2 350#3 350#4 -349 -95#0 -520#2 -520#1 -520#0 -584#11 -584#10 -584#9 -584#8 -584#7 -584#6 -584#5 -584#4 -584#3 -584#2 -584#1 620#0 620#1 -693#5 -693#4 -693#3 -693#2 -693#1 -693#0 729#0 729#1 729#2 862#2 862#3 739 884#1 884#2 884#3 884#4 188 198#0 198#1 198#2 -194 204#1 203 -820#2 -820#1 1509#3 -798 803#1 803#2 794#5 794#0 794#1 794#2"/>
    </vehicle>
    <vehicle id="evehicle_3_73" type="evehicle" depart="23630.00" departLane="best">