<?xml version="1.0" encoding="UTF-8"?>

<!--
    Monaco SUMO Traffic (MoST) Scenario
    Copyright (C) 2019
    Lara CODECA

    This program is free software: you can redistribute it and/or modify
    it under the terms of the GNU General Public License as published by
    the Free Software Foundation, either version 3 of the License, or
    (at your option) any later version.

    This program is distributed in the hope that it will be useful,
    but WITHOUT ANY WARRANTY; without even the implied warranty of
    MERCHANTABILITY or FITNESS FOR A PARTICULAR PURPOSE.  See the
    GNU General Public License for more details.

    You should have received a copy of the GNU General Public License
    along with this program.  If not, see <http://www.gnu.org/licenses/>.
-->

<routes xmlns:xsi="http://www.w3.org/2001/XMLSchema-instance" xsi:noNamespaceSchemaLocation="http://sumo.dlr.de/xsd/routes_file.xsd"> 
    <vehicle id="special_1-1_93" type="special" depart="18067" departLane="best" arrivalPos="random">
        <route edges="152419 152202 -152381 -152289 152790 152288 152796 152287 152757 152286 -152286 -152757 -152287 -152796 -152288 -152790 152289 152381 -152202 152457 152307 152308#2 152308#3 -152301 152956#5 152956#6 152956#7 152956#8 152956#10 152955#2 152955#3 152955#4 -152813#3 -152813#2 -152813#1 -152813#0 -152772 152759 152756 152795 152799 -152802 -152784 -152864 152864"/>
    </vehicle>
    <vehicle id="special_1-2_213" type="special" depart="18098" departLane="best" arrivalPos="random">
        <route edges="152704#1 -152702#2 -152702#1 -152702#0 -152995 -152993 -153409#16 -153409#15 -153409#14 153411#0 153411#1 153411#2 153411#3 153411#4 153411#5 -153406#6 -153406#5 -153406#4 -153406#3 -153406#2 -153406#1 -153406#0 -153419#2 -153419#1 -153417#4 -153417#3 153417#3"/>
    </vehicle>
    <vehicle id="special_1-1_263" type="special" depart="18102" departLane="best" arrivalPos="random">
        <route edges="-152656#0 152673#3 152673#4 152673#5 152646#0 152668#1 152668#2 -152377 -152712 -152763#3 -152763#2 -152763#1 -152763#0 -152697#0 152225 152939#0 152939#1 -152810#11 -152941#2 -152941#1 -152941#0 153548#1 153548#2 152866#0 -152866#0"/>
    </vehicle>
    <vehicle id="special_3-1_239" type="special" depart="18108" departLane="best" arrivalPos="random">
        <route edges="153455#1 153454#1 153001#0 153001#1 152231 153334 153637 152326#0 152326#1 152326#2 152326#3 152326#4 152326#5 152162 152164#0 152164#1 152395#1 152395#2 152395#3 -152887#1 -152887#0 152296 -152888#1 -152888#0 152832#0 152832#1 152832#2 152832#3 152832#4 -152826#2 -152826#1 -152826#0 -153437#1 -153437#0 -153441#1 -153441#0 152999#0 152999#1 153000 -152967#5 153435#0 153435#1 153435#2"/>
    </vehicle>
    <vehicle id="special_1-2_119" type="special" depart="18117" departLane="best" arrivalPos="random">
        <route edges="153327#1 153327#2 153327#4 153327#5 153327#6 153327#7 153327#8 153327#9 153327#10 153327#11 153325#4 153325#5 153408#5 152247 153381#0 153381#1 152246 153379#0 153379#1 -153377#7 -153377#6 -153377#5 -153377#4 -153377#3 -153377#2 -153377#1 -153377#0 152508#1 -153481#4 -153016"/>
    </vehicle>
    <vehicle id="special_1-2_177" type="special" depart="18147" departLane="best" arrivalPos="random">
        <route edges="152286 152283 152650#1 152650#2 152650#3 152650#4 152666#3 152673#0 152673#1 152673#2 152673#3 152673#4 152673#5 152646#0 152668#1 152668#2 -152377 -152712 -152763#3 -152763#2 -152763#1 -152763#0 -152697#0 152225 152939#0 152939#1 -152810#11 -152810#10 -152810#9 -152810#8 -152808#5 -152808#4 -152808#3 -152808#2 -152808#1 -152808#0 153437#1 153437#2 153437#3"/>
    </vehicle>
    <vehicle id="special_1-2_252" type="special" depart="18154" departLane="best" arrivalPos="random">
        <route edges="-152287 -152796 -152288 -152790 152289 152381 -152202 152457 152307 152308#2 152308#3 -152301 -152827#2 -152827#1 -152827#0 152812#4 152812#5 -152806#2 -152806#1 -152806#0 152771#0 -152377 -152712 -152763#3 -152763#2 -152776 -152702#3 -152702#2 -152702#1 -152702#0 -152995 -153550#3 -153550#2 -153550#1"/>
    </vehicle>
    <vehicle id="special_1-2_248" type="special" depart="18155" departLane="best" arrivalPos="random">
        <route edges="-152777 152661 -152771#2 -152771#0 152806#0 152806#1 152806#2 152816 152956#1 152956#2 152956#3 152956#4 152301 152308#0 152308#1 152308#2 -152305 152314#1 152314#2 -152304 152277 152526 -152326#5 -152326#4 -152326#3 -152326#2 153464#0 153464#1 153464#2 -153464#2"/>
    </vehicle>
    <vehicle id="special_3-1_90" type="special" depart="18169" departLane="best" arrivalPos="random">
        <route edges="-153454#0 153455#1 153454#1 153001#0 153001#1 152231 153334 153637 152326#0 152326#1 152326#2 152326#3 152326#4 152326#5 152162 -153002#3 -153002#2 -153002#1 -153002#0 -152895#1 -152895#0 152398#0 152398#1 152398#2 152934#0 152934#1 152934#2 152415#1 152304 152314#3 152314#4 152305 152308#3 -152301 152956#5 152956#6 152956#7 152956#8 -152821#1 152821#1"/>
    </vehicle>
    <vehicle id="special_1-1_81" type="special" depart="18203" departLane="best" arrivalPos="random">
        <route edges="152938 -152876#0 -152878 -152877 -152880#1 -152880#0 -152881 152885 -152857 -152856 152772 152813#0 152813#1 152813#2 152813#3 152955#5 152775 152814#0 152814#1 152814#2 152814#3 152812#0 152812#1 152812#2 152812#3 152812#4 152812#5 -152806#2 -152806#1 -152806#0 152771#0 -152377 -152712 -152763#3 -152763#2 -152763#1 -152763#0 152763#0"/>
    </vehicle>
    <vehicle id="special_1-1_240" type="special" depart="18223" departLane="best" arrivalPos="random">
        <route edges="152866#4 -152866#4 -152866#3 -152866#2 -152866#1 -152866#0 153548#3 153548#0 152941#0 152941#1 152941#2 -152810#10"/>
    </vehicle>
    <vehicle id="special_1-3_178" type="special" depart="18226" departLane="best" arrivalPos="random">
        <route edges="-152819#3 -152819#2 -152819#1 -152819#0 152828#4 152828#5 152828#6 152866#4 152866#5 153002#0 153002#1 153002#2 153002#3 -152162 -152326#5 -152326#4 -152326#3 -152326#2 -152326#1 -152326#0 153633 152401 -153003#6 -153452#6 -153452#5 -153452#4 -153452#3 -153452#2 -153452#1 -153452#0 153447#5 153431#0 153431#1 153431#2 153431#3 152412#1 152409#0 152409#1 152409#2 153390#0 153390#1 153390#2 153390#3 -153390#3"/>
    </vehicle>
    <vehicle id="special_2-1_127" type="special" depart="18235" departLane="best" arrivalPos="random">
        <route edges="-152363 -153400#3 -153400#2 -153400#1 153550#0 153550#1 153550#2 -153552 -153409#16 -153409#15 -153409#14 -153409#13 -153409#12 -153409#11 -153409#10 -153409#9"/>
    </vehicle>
    <vehicle id="special_3-1_46" type="special" depart="18264" departLane="best" arrivalPos="random">
        <route edges="152923 152253 153473#0 153473#1 152298 153338 152299 -153472#26 153475#0 153475#1 153475#2 153475#3 153475#5 153475#6 153475#7 153475#8 153475#9 153475#11 152326#1 152326#2 152326#3 152326#4 152326#5 152162 152164#0 152164#1 152395#1 152395#2 152897#0 152897#1 152984 152810#0 152810#1 152810#2 152810#3 152810#4"/>
    </vehicle>
    <vehicle id="special_2-1_163" type="special" depart="18269" departLane="best" arrivalPos="random">
        <route edges="-153008#0 -152988 -153488 -153353#2 -153350#2 -153350#1 -153350#0 -153355#1 -153355#0 -153319#4 -153319#3 -153319#2 -153319#1 -153319#0 -153361#4 -153361#3 -153361#1 -153361#0 152342#1 152217 152581#1 152346 152578#0 152578#1 152578#2 152578#3 152578#4 152450#2 152450#3 152602#0 152602#1 -152613 -152606"/>
    </vehicle>
    <vehicle id="special_1-2_298" type="special" depart="18292" departLane="best" arrivalPos="random">
        <route edges="152660#6 152664#2 152663#4 152663#5 152663#6 152663#7 152663#8 152663#9 152663#10 152663#11 152601#1 152601#2 152165 152219 152449 152450#1 -152578#4 -152578#3 -152578#2 -152578#1 -152578#0 152572 152215 152342#1 152217 -153476#7 -153476#6 -153476#5 -153476#4 -153360#1 -153360#0"/>
    </vehicle>
    <vehicle id="special_1-3_267" type="special" depart="18313" departLane="best" arrivalPos="random">
        <route edges="152583#0 -152583#0 152220 152166#0 152166#1 152603 152359#3 152359#0 152359#1 -152665#1 -152665#0 -152222 -152286 -152757 -152287 -152796 -152288 -152790 152289 152381 -152202 152457 152307 152308#2 -152305 152314#1 152314#2 -152304 152277 152526 -152326#5 -152326#4 -152326#3 -152326#2 -152326#1 -152326#0 153633 153630#1 153632#1 152998#0 152998#1 -153454#1 -153454#0 -153453"/>
    </vehicle>
    <vehicle id="special_1-1_285" type="special" depart="18323" departLane="best" arrivalPos="random">
        <route edges="153269#0 -152131#1 -152131#0 152798 152814#1 152814#2 152814#3 152812#0 152812#1 152812#2 152812#3 152812#4 152812#5 -152806#2 152806#2"/>
    </vehicle>
    <vehicle id="special_1-3_82" type="special" depart="18324" departLane="best" arrivalPos="random">
        <route edges="-152689#2 -152689#1 -152689#0 152705#2 152702#1 152702#2 152702#3 -152697#2 -152697#1 -152697#0 152225 152939#0 152939#1 -152810#11 -152810#10 -152810#9 -152810#8 -152810#7 -152810#6 -152810#5 -152810#4 -152810#3 -152810#2 -152810#1 -152810#0 152985 -152897#1 -152897#0 152395#3 152395#0 -152164#1 -152164#0 -152162 -152326#5 -152326#4 -152326#3 -152326#2 -152326#1 -152326#0 153633 152401 -153003#6 -153452#6 -153452#5 -153452#4 -153452#3 -153452#2 -153452#1 -153452#0 153447#5 153431#0 153431#1 153431#2 153431#3 152412#1 152409#0 152409#1 152409#2 152409#3"/>
    </vehicle>
    <vehicle id="special_1-2_43" type="special" depart="18327" departLane="best" arrivalPos="random">
        <route edges="152664#2 152710 152170#0 152170#1 -152697#5 -152697#4 -152697#3 -152697#2 -152697#1 -152697#0 152225 152939#0 152939#1 -152810#11 -152810#10 -152810#9 -152810#8 -152808#5 -152808#4 -152808#3 -152808#2 -152808#1 -152808#0 153443 -153443"/>
    </vehicle>
    <vehicle id="special_3-1_61" type="special" depart="18330" departLane="best" arrivalPos="random">
        <route edges="-152899 153454#1 153001#0 153001#1 152231 153334 153637 152326#0 152326#1 152326#2 152326#3 152326#4 152326#5 152162 -153002#3 -153002#2 -153002#1 -153002#0"/>
    </vehicle>
    <vehicle id="special_1-3_259" type="special" depart="18368" departLane="best" arrivalPos="random">
        <route edges="152531#4 152531#6 152650#4 152666#3 152666#4 152278 -152286 -152757 -152287 -152796 -152288 -152790 152289 152381 -152202 152457 152307 152308#2 -152305 152314#1 152314#2 152314#3 152135 152133#0 152134 152964 -152266 -152414 -152954 153472#1 153472#2 153472#3 153472#5 153472#6 153472#7 153472#8 153472#9 153472#10 153472#11 153472#12 153472#13 153472#14 153472#15 153472#16 153472#17 153472#18 153472#19 153472#20 153472#22 153472#23 153472#24 153472#25 153472#26 -152299 -153338 -152298 -153473#1 -153473#0 -152253 -152923"/>
    </vehicle>
    <vehicle id="special_2-1_195" type="special" depart="18371" departLane="best" arrivalPos="random">
        <route edges="152409#3 152248 153391 152249 -153432 153432 -152249 -153391 -152248 -152409#3 -152409#2 -152409#1 -152409#0 152408 -152533 152924#4 152407 152527 152324#1 152284 152851 152206 152532 152390 153637 152326#0 152326#1 152326#2 152326#3 152326#4 152326#5 152162 152164#0 152164#1 152395#1 152395#2 152897#0 152897#1 152984 152810#0 152810#1 152810#2 152810#3 152810#4 -152810#4"/>
    </vehicle>
    <vehicle id="special_1-1_220" type="special" depart="18372" departLane="best" arrivalPos="random">
        <route edges="152826#2 152832#5 152832#6 152810#3 152810#4 152810#5 152810#6 152810#7 152810#8 152810#9 152810#10 152810#11 152755 152226 152781#0 152815 152940#2 152230 152697#0 152697#1 152697#2 152697#3 152697#4 152697#5 152699 152701#0 152701#1 152171 152674 152538 152643#0 152644#0 152644#1 152644#2 152644#3 152644#4 152644#5 152644#6 152349#2 152349#3 -152509#1 -152602#9 -152602#8 -152602#7 -152933#4"/>
    </vehicle>
    <vehicle id="special_3-1_246" type="special" depart="18382" departLane="best" arrivalPos="random">
        <route edges="-153390#3 -153390#2 -153390#1 -153390#0 -152409#2 -152409#1 -152409#0 152408 -152533 152924#4 152407 152527 152324#1 152284 152851 152206 152532 152390 153637 152326#0 152326#1 152326#2 152326#3 152326#4 152326#5 152162 152164#0 152164#1 152395#1 152395#2 152897#0 152897#1 152316 152399 152128 152417 152891#2 152978#0 152978#1 152978#2 -152979 152869#0 152869#1 152869#2 152869#3 152294 -152642 152394#2 152394#3 -152394#3"/>
    </vehicle>
    <vehicle id="special_2-1_42" type="special" depart="18429" departLane="best" arrivalPos="random">
        <route edges="-153376#1 153376#1 153376#2 153376#3 153376#4 153376#5 -152585 -152280 152590 -152937#3 -152937#2 -152937#1 -152937#0 152933#0 152933#1 152933#2 152933#3 152933#4 -152933#4"/>
    </vehicle>
    <vehicle id="special_1-3_282" type="special" depart="18432" departLane="best" arrivalPos="random">
        <route edges="152934#0 -152934#0 152398#3 152895#0 152895#1 153002#0 153002#1 153002#2 153002#3 -152162 -152326#5 -152326#4 -152326#3 -152326#2 -152326#1 -152326#0 153633 152401 -153003#6 -153452#6 -153452#5 -153452#4 -153452#3 -153452#2 -153452#1 -153452#0 153447#5 153431#0 153431#1 153431#2 153431#3 152412#1 152409#0 152409#1 152409#2 152409#3 152248 153391 152249 -153432"/>
    </vehicle>
    <vehicle id="special_1-1_43" type="special" depart="18451" departLane="best" arrivalPos="random">
        <route edges="152832#6 -152810#2 -152810#1 -152810#0 152985 -152897#1 152897#1 152316 152399 152128 152417 152891#2 152978#0 152978#1 152978#2 152978#3 -152896#1 -152896#0 152971#3 152971#4 152879#0 152879#1 152879#2 152870#5 152870#0 152870#1 152871#0 152871#1"/>
    </vehicle>
    <vehicle id="special_3-1_11" type="special" depart="18518" departLane="best" arrivalPos="random">
        <route edges="-152899 153454#1 153001#0 153001#1 152231 153334 153637 152326#0 152326#1 152326#2 152326#3 152326#4 152326#5 152162 152164#0 152164#1 152395#1 152395#2 152897#0 152897#1 152316 152399 152128 152417 152891#2 152978#0 152978#1 152978#2 152978#3 -152896#1 -152896#0 152971#3 152971#4 152879#0 152879#1 152879#2 152870#5 152870#0 152870#1 152871#0"/>
    </vehicle>
    <vehicle id="special_2-1_106" type="special" depart="18526" departLane="best" arrivalPos="random">
        <route edges="-153417#3 153417#3 153417#4 153419#1 153419#2 153406#0 153406#1 153406#2 153406#3 153406#4 153406#5 153406#6 153406#7 153406#8 153406#9 -153327#2 -153327#1 -153327#0 -153411#1 -153411#0 153409#14 153409#15 153409#16 152993 152995 152702#0 152702#1 152702#2 152702#3 152776 152763#2 152763#3 152712 152377 -152771#0 152806#0 152806#1 152806#2 152783#0 152783#1 152783#2 152758 152285"/>
    </vehicle>
    <vehicle id="special_2-1_74" type="special" depart="18535" departLane="best" arrivalPos="random">
        <route edges="152908#5 152908#6 152908#8 152978#1 152978#2 152978#3 -152896#1 -152896#0 152971#3 152971#4 152879#0 152879#1 152879#2 152870#5 152870#0 152870#1 152870#2 153634 152293#0 152293#0-AddedOffRampEdge 152293#1 152963 152812#2 152812#3 152812#4 152812#5 -152806#2 -152806#1 -152806#0 152771#0 -152668#2 -152668#1 -152646#0 -152673#5 152664#0 152664#1 152664#2"/>
    </vehicle>
    <vehicle id="special_1-3_154" type="special" depart="18542" departLane="best" arrivalPos="random">
        <route edges="-153397 153397 152643#2 153401#0 153401#1 153401#2 153401#3 153402#0 153402#1 153402#2 152936 152680 152170#1 -152697#5 -152697#4 -152697#3 -152697#2 -152697#1 -152697#0 152225 152939#0 152939#1 -152810#11 -152810#10 -152810#9 -152810#8 -152810#7 -152810#6 -152810#5 -152810#4 -152810#3 -152810#2 -152810#1 -152810#0 152985 -152897#1 -152897#0 152395#3 152395#0 -152164#1 -152164#0 -152162 -152326#5 -152326#4 -152326#3 -152326#2 -152326#1 -152326#0 153633 153630#1 153632#1 152998#0 152998#1 -153454#1 -153454#0"/>
    </vehicle>
    <vehicle id="special_1-2_109" type="special" depart="18562" departLane="best" arrivalPos="random">
        <route edges="152807 152812#5 -152806#2 -152806#1 -152806#0 152771#0 152771#2 152771#3 152771#4 152771#5 -152698#1 -152698#0 152663#1 152663#2 152663#3 152663#4 152663#5 152663#6 152663#7 152663#8 152663#9 152663#10 152663#11 152601#1 152601#2 152165 152219 152449 152450#1 -152578#4 -152578#3 -152578#2 -152578#1 -152578#0 152572 152215 153361#0 153361#1 153361#3 153361#4 153319#0 153319#1 153319#2 153319#3 153319#4 153355#0 153355#1 153350#0 153350#1 153350#2 153353#2 153488 -153008#0 -152988"/>
    </vehicle>
    <vehicle id="special_1-3_24" type="special" depart="18585" departLane="best" arrivalPos="random">
        <route edges="-152394#3 -152394#2 152642 -152294 -152869#3 -152869#2 -152869#1 -152869#0 152979 152978#3 152978#4 152969 -152891#1 -153472#0 152414 152266 152415#0 152415#1 152277 152526 -152326#5 -152326#4 -152326#3 -152326#2 -152326#1 -152326#0 153633 152401 -153003#6 -153452#6 -153452#5 -153452#4 -153452#3 -153452#2 -153452#1 -153452#0 -153447#4 -153447#3 -153447#2 -153447#1 -153447#0 -153448#1 153453"/>
    </vehicle>
    <vehicle id="special_1-3_86" type="special" depart="18593" departLane="best" arrivalPos="random">
        <route edges="-153002#0 153002#0 153002#1 153002#2 153002#3 -152162 -152326#5 -152326#4 -152326#3 -152326#2 -152326#1 -152326#0 153633 152401 -153003#6 -153452#6 -153452#5 -153452#4 -153452#3 -153452#2 -153452#1 -153452#0 153447#5 153431#0 153431#1 153431#2 153431#3 152412#1 152409#0 152409#1 152409#2 152409#3"/>
    </vehicle>
    <vehicle id="special_1-1_294" type="special" depart="18594" departLane="best" arrivalPos="random">
        <route edges="152810#8 152810#9 152810#10 152810#11 152755 152226 152781#0 152815 152940#2 152230 152697#0 -152697#0 152225"/>
    </vehicle>
    <vehicle id="special_1-1_223" type="special" depart="18640" departLane="best" arrivalPos="random">
        <route edges="-152394#0 152454#3 -152447 152870#1 152870#2 153634 152293#0 152293#0-AddedOffRampEdge 152293#1 152963 152812#2 152812#3 152812#4 152812#5 152783#0 152783#1 152783#2 152758 152285 152658 152650#2 152530#0 152530#2 152530#4 152530#5 152530#6 152530#7 -152161#1 -152453#2 152453#0"/>
    </vehicle>
    <vehicle id="special_2-1_9" type="special" depart="18647" departLane="best" arrivalPos="random">
        <route edges="152838 153423#5 153423#6 153423#7 153423#8 153423#9 153423#10 153423#11 -152904#5 -152904#3 -152904#2 -152904#1 -152904#0 153429#1 152730#0 -152732#2 -152732#1 -152732#0 153387#0 153387#1 153388#1 153383#1 153383#2 -152624#1 -152624#0 -153380#1 -153380#0 -152173 -152172#2 -152172#1 -152172#0 -153379#0 -152246 -153381#1 -153381#0 -152247 -153408#5 -153325#5 -153325#4 -153325#3 -153325#2 -153325#1 -153325#0 152929#3 -153395#1 -153395#0 152645#0 152645#1 152645#2 152645#3 152645#4 152645#5 153402#0 153402#1 153402#2 152675 152674 152538 152643#0 152644#0 153396 153397"/>
    </vehicle>
    <vehicle id="special_1-1_33" type="special" depart="18695" departLane="best" arrivalPos="random">
        <route edges="-152773 152380 152812#0 152812#1 152812#2 152812#3 152827#0 152827#1 152827#2 152956#5 152956#6 152956#7 152956#8 -152821#1 -152821#0 -153545#2 -153545#1 -153545#0"/>
    </vehicle>
    <vehicle id="special_1-3_15" type="special" depart="18697" departLane="best" arrivalPos="random">
        <route edges="152450#1 -152578#4 -152578#3 -152578#2 -152578#1 -152578#0 152572 152215 152342#1 152217 -153476#7 -153476#6 -153476#5 -153476#4 -153476#3 -153476#2 -153476#1 -153476#0 153368#2 153368#3 153368#4 -152303 -152561 -152241 -153365#1 -153365#0 152242 -153379#5 -153379#4 -153379#3 -153379#2 -153379#1 -153382 152172#1 152172#2 152173 153380#0 153380#1 153380#2 152624#1 -153383#2 -153383#1 -153388#1 -153387#1 -153387#0 152732#0 152732#1 152732#2 -152730#0 -153420#0 -153429#0 -153447#6 153431#0 153431#1 153431#2 153431#3 152412#1 152409#0 152409#1 152409#2 152409#3"/>
    </vehicle>
    <vehicle id="special_2-1_94" type="special" depart="18713" departLane="best" arrivalPos="random">
        <route edges="-152904#6 -152904#5 -152904#3 -152904#2 -152904#1 -152904#0 -153429#0 -153447#6 -153447#5 153452#0 153452#1 153452#2 153452#3 153452#4 153452#5 153452#6 153003#6 152402 153632#1 152998#0 152834 153001#1 152231 153334 153637 152326#0 152326#1 152326#2 152326#3 152326#4 152326#5 152162 -153002#3 -153002#2 -153002#1 -153002#0 -152895#1 -152895#0"/>
    </vehicle>
    <vehicle id="special_1-3_5" type="special" depart="18717" departLane="best" arrivalPos="random">
        <route edges="-152294 -152869#3 -152869#2 -152869#1 -152869#0 152979 152978#3 152978#4 152969 -152891#1 153472#1 153472#2 153472#3 153472#5 153472#6 153472#7 153472#8 153472#9 153472#10 153472#11 153472#12 153472#13 153472#14 153472#15 153472#16 153472#17 153472#18 153472#19 153472#20 153472#22 153472#23 153472#24 153472#25 153472#26 -152299 -153338 -152298 -153473#1 -153473#0 -152253 -152923"/>
    </vehicle>
    <vehicle id="special_2-1_5" type="special" depart="18794" departLane="best" arrivalPos="random">
        <route edges="-152328 -152927#3 -152927#2 -152927#1 153003#0 153003#2 153003#3 153003#4 153003#5 153003#6 152402 153632#1 152998#0 152834 153001#1 152231 153334 153637 152326#0 152326#1 152326#2 152326#3 152326#4 152326#5 152162 152164#0 152164#1 152395#1 152395#2 152897#0 152897#1 152316 152399 152128 152417 152891#2 152978#0 152978#1 152978#2 -152979 152869#0 152869#1 152869#2 152869#3 152294 -152642 152394#2 152394#3 -152394#3"/>
    </vehicle>
    <vehicle id="special_2-1_250" type="special" depart="18822" departLane="best" arrivalPos="random">
        <route edges="-152396 -152128 152414 152266 152415#0 152415#1 152304 152314#3 152314#4 152305 152308#3 -152301 -152827#2 -152827#1 -152827#0 152812#4 152812#5 -152806#2 -152806#1 -152806#0 152771#0 152771#2 152771#3 152771#4 152771#5 -152698#1 -152698#0 152663#1 152663#2 152663#3 152710"/>
    </vehicle>
    <vehicle id="special_2-1_0" type="special" depart="18854" departLane="best" arrivalPos="random">
        <route edges="152578#4 152450#2 152450#3 152450#4 -152449 -152219 -152165 -152601#2 -152601#1 -152601#0 -152663#10 -152663#9 -152663#8 -152663#7 -152663#6 -152663#5 -152663#4 -152663#3 -152663#2 -152663#1 152698#0 152698#1 -152771#5 -152771#4 -152771#3 -152771#2 -152771#0 152806#0 152806#1 152806#2 152816 152956#1 152956#2 152956#3 152956#4 152956#5 152956#6 152956#7 152956#8 -153269#2 -153269#1 -152131#1 -152131#0 152798 152814#1 152814#2 152814#3 152384#0 152384#1 152773 152378 152767"/>
    </vehicle>
    <vehicle id="special_1-2_134" type="special" depart="18875" departLane="best" arrivalPos="random">
        <route edges="152808#1 152808#2 152808#3 152808#4 152808#5 152810#8 152810#9 152810#10 152810#11 152755 152226 152781#0 152815 152940#2 152230 152697#0 152697#1 152697#2 152697#3 152697#4 152697#5 152699 152700 152663#1 152663#2 152663#3 152663#4 152663#5 152663#6 152663#7 152663#8 152663#9 152663#10 152663#11 152601#1 152601#2 152165 152219 152449 152450#1 -152578#4 -152578#3 -152578#2 -152578#1 -152578#0 152572 152215 153361#0 153361#1 153361#3 153361#4 153319#0 153319#1 153319#2 153319#3 153319#4 153355#0 153355#1 153350#0 153350#1 153350#2 153353#2 -152953 -152279 152550 153652 152279 -152551"/>
    </vehicle>
    <vehicle id="special_1-2_263" type="special" depart="18900" departLane="best" arrivalPos="random">
        <route edges="152602#8 152602#9 152509#1 152349#4 152349#1 152349#2 152350#0 152350#1 -152648#0 -152663#10 -152663#9 -152663#8 -152663#7 -152663#6 -152663#5 -152663#4 152710 152170#0 152170#1 -152697#5 -152697#4 -152697#3 -152697#2 -152697#1 -152697#0 152225 152939#0 152939#1 -152810#11 -152810#10 -152810#9 -152810#8 -152808#5 -152808#4 -152808#3 -152808#2 -152808#1 -152808#0 153437#1 153442"/>
    </vehicle>
    <vehicle id="special_3-1_83" type="special" depart="18910" departLane="best" arrivalPos="random">
        <route edges="153448#0 153448#1 153448#2 153447#1 153447#2 153447#3 153447#4 153452#0 153452#1 153452#2 153452#3 153452#4 153452#5 153452#6 153003#6 152402 153632#1 152998#0 152834 153001#1 152231 153334 153637 152326#0 152326#1 152326#2 152326#3 152326#4 152326#5 152162 -153002#3 -153002#2 -153002#1 -153002#0 -152895#1 -152895#0 152398#0 152398#1 152398#2 152934#0 152934#1 152934#2 152415#1 152304 152314#3 152314#4 152305 152308#3 -152301 152956#5 152956#6 152956#7 152956#8 -153269#2 -153269#1 -152131#1 -152131#0 152798"/>
    </vehicle>
    <vehicle id="special_2-1_296" type="special" depart="18911" departLane="best" arrivalPos="random">
        <route edges="-153450#1 153450#1 152405#3 152326#0 152326#1 152326#2 152326#3 152326#4 152326#5 152162 152164#0 152164#1 152395#1 152395#2 152897#0 152897#1 152984 152810#0 152810#1 152810#2 152810#3 152810#4 152810#5 152810#6 152810#7 152810#8 152810#9 152810#10 152810#11 152755 152226 152781#0 152815 152940#2 152230 152697#0 152697#1 152697#2 152697#3 152697#4 152697#5 152699 152700 152663#1 152663#2 152663#3 152663#4 152663#5 152663#6 152663#7 152663#8 152663#9 152663#10 152663#11 152601#1 152601#2 152598 -152166#1 -152166#0 -152220 152583#0 152583#1 152583#2 152583#3 152216 152575#0 152575#1 152344 152574#1 -152214 153374#0 152580"/>
    </vehicle>
    <vehicle id="special_1-1_242" type="special" depart="18924" departLane="best" arrivalPos="random">
        <route edges="152806#2 152816 152956#1 152956#2 152956#3 152956#4 152301 152308#0 152308#1 152308#2 -152305 152314#1 152313 -152894#2 152894#2"/>
    </vehicle>
    <vehicle id="special_2-1_284" type="special" depart="18929" departLane="best" arrivalPos="random">
        <route edges="-152988 -153488 -153353#2 -153350#2 -153350#1 -153350#0 -153355#1 -153355#0 -153319#4 -153319#3 -153319#2 -153319#1 -153319#0 -153361#4 -153361#3 -153361#1 -153361#0 152342#1 152217 152581#1 152346 152578#0 152578#1 152578#2 152578#3 152578#4 152450#2 152450#3 152450#4 -152449 -152219 -152165 -152601#2 -152601#1 -152601#0 -152663#10 -152663#9 -152663#8 -152663#7 -152663#6 -152663#5 -152663#4 -152663#3 -152663#2 -152663#1 152698#0 152698#1 -152771#5 -152771#4 -152771#3 -152771#2 -152771#0 152806#0 152806#1 152806#2 152816 152956#1 152801#0 152801#1 152801#2 -152762#1 -152762#0"/>
    </vehicle>
    <vehicle id="special_2-1_39" type="special" depart="18955" departLane="best" arrivalPos="random">
        <route edges="-153008#0 -152988 -153488 -153353#2 -153350#2 -153350#1 -153350#0 -153355#1 -153355#0 -153319#4 -153319#3 -153319#2 -153319#1 -153319#0 -153361#4 -153361#3 -153361#1 -153361#0 152342#1 152217 152581#1 152346 152578#0 152578#1 152578#2 152578#3 152578#4 152450#2 152450#3 152450#4 -152449 -152219 -152165 -152601#2 -152601#1 -152601#0 -152663#10 -152663#9 -152663#8 -152663#7 -152663#6 -152663#5 -152663#4 -152663#3 -152663#2 -152663#1 152698#0 152698#1 -152771#5 -152771#4 -152771#3 -152771#2 -152771#0 152806#0 152806#1 152806#2 152816 152956#1 152956#2 152956#3 152956#4 152956#5 152956#6 152956#7 152956#8 -153269#2 -153269#1 -152131#1 -152131#0 152798 152814#1 152814#2 152814#3 152384#0 152384#1 152773 -152773"/>
    </vehicle>
    <vehicle id="special_1-2_174" type="special" depart="18967" departLane="best" arrivalPos="random">
        <route edges="152771#0 -152377 -152712 -152763#3 -152763#2 -152776 -152702#3 -152702#2 152711 152707#0 152707#1 152707#2"/>
    </vehicle>
    <vehicle id="special_2-1_60" type="special" depart="18976" departLane="best" arrivalPos="random">
        <route edges="153327#2 -153327#2 -153327#1 -153327#0 -153411#1 -153411#0 153409#14 153409#15 153409#16 152993 152995 152702#0 152702#1 152702#2 152702#3 -152697#2 -152697#1 -152697#0 152225 152939#0 152789 152781#2 152163 152965#0 152965#1 152965#2 152965#3 -152791#1 152820#0 152820#1 152133#7 152133#0 152133#1 152133#2 -152853 152295 -152894#2 -152894#1 -153555#2 -153555#1 -153555#0"/>
    </vehicle>
    <vehicle id="special_1-3_45" type="special" depart="19001" departLane="best" arrivalPos="random">
        <route edges="152763#1 -152763#1 -152763#0 -152697#0 152225 152939#0 152939#1 -152810#11 -152810#10 -152810#9 -152810#8 -152810#7 -152810#6 -152810#5 -152810#4 -152810#3 -152810#2 -152810#1 -152810#0 152985 -152897#1 -152897#0 152395#3 152395#0 -152164#1 -152164#0 -152162 -152326#5 -152326#4 -152326#3 -152326#2 -152326#1 -152326#0 153633 152401 -153003#6 -153452#6 -153452#5 -153452#4 -153452#3 -153452#2 -153452#1 -153452#0 -153447#4 -153447#3 -153447#2 -153447#1 -153447#0 -153448#1 153453"/>
    </vehicle>
    <vehicle id="special_1-3_60" type="special" depart="19030" departLane="best" arrivalPos="random">
        <route edges="-152807 152382#0 152827#1 152827#2 152301 152308#0 152308#1 152308#2 -152305 152314#1 152314#2 -152304 152277 152526 -152326#5 -152326#4 -152326#3 -152326#2 -152326#1 -152326#0 153633 153630#1 153632#1 152998#0 152998#1 -153454#1 -153454#0 -153455#0"/>
    </vehicle>
    <vehicle id="special_3-1_7" type="special" depart="19107" departLane="best" arrivalPos="random">
        <route edges="-152923 -152300 -153474 153474 152300 152923 152253 153473#0 153473#1 152298 153338 152299 -153472#26 -153472#25 -153472#24 -153472#23 -153472#22 -153472#20 -153472#19 -153472#18 -153472#17 -153472#16 -153472#15 -153472#14 -153472#13 -153472#12 -153472#11 -153472#10 153004#0 153004#1 153004#2 153004#3 153004#4 153004#5 153004#6 153004#7 152398#2 152398#3 152895#0 152895#1 152895#2 -152866#4 -152866#3 -152866#2 -152866#1 -152866#0 153548#3 153548#0 152941#0 152941#1 152941#2"/>
    </vehicle>
    <vehicle id="special_3-1_299" type="special" depart="19113" departLane="best" arrivalPos="random">
        <route edges="152401 -153003#6 153003#6 152402 153632#1 152998#0 152834 153001#1 152231 153334 153637 152326#0 152326#1 152326#2 152326#3 152326#4 152326#5 152162 152164#0 152164#1 152395#1 152395#2 152897#0 152897#1 152984 152810#0 152810#1 152810#2 152810#3 152810#4 152810#5 152810#6 152810#7 152810#8 152810#9 152810#10 152810#11 152755 152226 152781#0 152815 152940#2 152230 152697#0 152697#1 152697#2 152697#3 152697#4 152697#5 152699 152701#0 152701#1 152171 152674 152538 152679"/>
    </vehicle>