<?xml version="1.0" encoding="UTF-8"?>
<!-- generated on 2019-01-11 125:20.825895 by $Id$
  options: -n /home/drone/EURECOM/Projects/GITHUB/MoSTScenario/scenario/in/most.net.xml -b 14400 -e 50400 -p 1200 <doubleminus>random-begin <doubleminus>seed 42 <doubleminus>no-vtypes <doubleminus>ptstops /home/drone/EURECOM/Projects/GITHUB/MoSTScenario/scenario/in/add/most.busstops.add.xml <doubleminus>ptlines pt/most.buslines.add.xml -o out/most.buses.flows.xml
-->
<routes xmlns:xsi="http://www.w3.org/2001/XMLSchema-instance" xsi:noNamespaceSchemaLocation="http://sumo.dlr.de/xsd/routes_file.xsd">
    <route id="bus_M2:France" edges="-153419#0 -153428#0 -153446#6 -153446#5 -153446#4 -153446#3 -153446#2 -153446#1 -153446#0 -153447#1 153452 -153454#0 -152251 153455" >
        <stop busStop="131164" duration="30.00" until="47.0"/> <!-- La Turbie Marie -->
        <stop busStop="131168" duration="30.00" until="397.0"/> <!-- 131168 -->
    </route>
    <route id="bus_M4:Train" edges="-152904 152904 153471#14 153471#15 153471#16 153471#17 153471#18 153471#19 153471#20 153471#22 -153005#1 -153005#0 -152915#2" >
        <stop busStop="131180" duration="30.00" until="37.0"/> <!-- L'Eglise -->
        <stop busStop="131178" duration="30.00" until="169.0"/> <!-- La Source -->
        <stop busStop="131035" duration="30.00" until="251.0"/> <!-- Les Cigognes -->
        <stop busStop="131195" duration="30.00" until="309.0"/> <!-- Bois Joli -->
    </route>
    <route id="bus_M4:HotelVille" edges="152915#2 153005#0 153005#1 -153471#22 -153471#20 -153471#19 -153471#18 -153471#17 -153471#16 -153471#15 -153471#14 -153471#13" >
        <stop busStop="131027" duration="30.00" until="39.0"/> <!-- Bois Joli -->
        <stop busStop="131196" duration="30.00" until="100.0"/> <!-- Les Cigognes -->
        <stop busStop="131177" duration="30.00" until="174.0"/> <!-- Guillaume Apollinaire -->
        <stop busStop="131179" duration="30.00" until="251.0"/> <!-- L'Eglise -->
        <stop busStop="131181" duration="30.00" until="315.0"/> <!-- Hotel de Ville -->
    </route>
    <route id="bus_M1:France" edges="152922 152252 153472#0 -152898 -153453#0 -153454#0 -152251 153455" >
        <stop busStop="131172" duration="30.00" until="74.0"/> <!-- Parking Saint-Laurent d'Eze -->
        <stop busStop="131031" duration="30.00" until="239.0"/> <!-- Chapelle de Saint-Laurent -->
        <stop busStop="131168" duration="30.00" until="614.0"/> <!-- 131168 -->
    </route>
    <route id="bus_M1:Eze" edges="-153455 152251 153454#0 153454#1 152898 -153472#0 -152252 -152922" >
        <stop busStop="131167" duration="30.00" until="41.0"/> <!-- 131167 -->
        <stop busStop="131162" duration="30.00" until="431.0"/> <!-- Chapelle de Saint-Laurent -->
        <stop busStop="131171" duration="30.00" until="585.0"/> <!-- Parking Saint-Laurent d'Eze -->
    </route>
    <route id="bus_M2:Turbie" edges="-153455 152251 153454#0 -153452 153447#1 153447#2 153446#1 153446#2 153446#3 153446#4 153446#5 153446#6 153446#7" >
        <stop busStop="131167" duration="30.00" until="41.0"/> <!-- 131167 -->
        <stop busStop="131030" duration="30.00" until="392.0"/> <!-- La Turbie Marie -->
    </route>
    <route id="bus_M5:PontUnion" edges="152988#0 152988#1 152234 153352#0 153352#1 153352#2 -152952 -152278 152549" >
        <stop busStop="131158" duration="30.00" until="65.0"/> <!-- Ramingao -->
        <stop busStop="131155" duration="30.00" until="144.0"/> <!-- 2e Escalier -->
        <stop busStop="131153" duration="30.00" until="205.0"/> <!-- 1er Escalier -->
        <stop busStop="131151" duration="30.00" until="289.0"/> <!-- Massolin -->
        <stop busStop="131078" duration="30.00" until="392.0"/> <!-- Cypris -->
        <stop busStop="131077" duration="30.00" until="461.0"/> <!-- Orchidees -->
        <stop busStop="131075" duration="30.00" until="601.0"/> <!-- Victoria -->
        <stop busStop="131194" duration="30.00" until="687.0"/> <!-- Pont de l'Union -->
    </route>
    <route id="bus_M5:Ramingao" edges="153651 152278 -152550 -153352#2 -153352#1 -153352#0 -152234 -152988#1 -152988#0" >
        <stop busStop="131140" duration="30.00" until="44.0"/> <!-- Pont de l'Union -->
        <stop busStop="131198" duration="30.00" until="136.0"/> <!-- 131198 -->
        <stop busStop="131076" duration="30.00" until="275.0"/> <!-- Le Cirta -->
        <stop busStop="131074" duration="30.00" until="338.0"/> <!-- Mairie -->
        <stop busStop="131152" duration="30.00" until="490.0"/> <!-- 1er Escalier -->
        <stop busStop="131154" duration="30.00" until="553.0"/> <!-- 2e Escalier -->
        <stop busStop="131159" duration="30.00" until="634.0"/> <!-- Ramingao -->
    </route>
    <route id="bus_M3:Hospital" edges="153446#7 152903#0 152903#1 152903#2 152903#3 152903#5 152903#6 152903#7 152903#8 152404#1 152404#2 152404#3 152325#0 152325#1 152325#2 152325#3 152325#4 152325#5 152161 -153001#3 -153001#2 -153001#1 -153001#0 -152894#1 -152894#0 152397#0 152397#1 152397#2 152397#3 152894#0 152894#1" >
        <stop busStop="131030" duration="30.00" until="72.0"/> <!-- La Turbie Marie -->
        <stop busStop="131038" duration="30.00" until="156.0"/> <!-- 131038 -->
        <stop busStop="131020" duration="30.00" until="268.0"/> <!-- 131020 -->
        <stop busStop="131019" duration="30.00" until="589.0"/> <!-- 131019 -->
        <stop busStop="131037" duration="30.00" until="686.0"/> <!-- 131037 -->
        <stop busStop="131029" duration="30.00" until="762.0"/> <!-- 131029 -->
        <stop busStop="131055" duration="30.00" until="923.0"/> <!-- Hopital -->
    </route>
    <route id="bus_1:Monaco" edges="152344 152577#1 152577#2 152577#3 152577#4 152449#2 152449#3 152449#4 -152448 -152218 -152164 -152600#2 -152600#1 -152600#0 -152662#10 -152662#9 -152648 -152668 -152654 -152646 -152944 -152656 -152662#3 -152662#2 -152662#1 152697#0 152697#1 152708 -152708 -152697#1 -152683#2 -152683#1 -152683#0 152667#1 152667#2 -152770#0 152805#0 152805#1 152805#2 152815 152955#1 152955#2 152955#3 152955#4 152955#5 152955#6 152955#7 152955#8 -153268#2 -153268#1 -152130#1 -152130#0 152797 152813#1 152813#2 152813#3 152811#0 152811#1 152811#2 152811#3 152826#0 152826#1 152826#2 152955#5 152955#6 152955#7 152955#8 152955#10 152954#2 152954#3 152954#4 -152812#3 -152812#2 -152812#1 -152812#0 -152771 152758 -152767 -152768" >
        <stop busStop="131166" duration="30.00" until="42.0"/> <!-- Saint-Roman (Bus 1) -->
        <stop busStop="131133" duration="30.00" until="116.0"/> <!-- Carmes -->
        <stop busStop="131124" duration="30.00" until="200.0"/> <!-- La Rousse -->
        <stop busStop="131128" duration="30.00" until="257.0"/> <!-- Place des Moulins -->
        <stop busStop="131134" duration="30.00" until="328.0"/> <!-- Saint-Charles -->
        <stop busStop="131062" duration="30.00" until="421.0"/> <!-- Monte-Carlo -->
        <stop busStop="131063" duration="30.00" until="536.0"/> <!-- Square Beaumarchais -->
        <stop busStop="131132" duration="30.00" until="604.0"/> <!-- Ostende -->
        <stop busStop="131060" duration="30.00" until="694.0"/> <!-- Place Sainte-Devote (Gare) -->
        <stop busStop="131122" duration="30.00" until="747.0"/> <!-- Princesse Florestine -->
        <stop busStop="131118" duration="30.00" until="844.0"/> <!-- Place d'Armes (Port) -->
        <stop busStop="131116" duration="30.00" until="1061.0"/> <!-- Monaco Ville (le Rocher) -->
    </route>
    <route id="bus_2:Monaco" edges="152891 152809#1 152809#2 152809#3 152809#4 152809#5 152809#6 152809#7 152809#8 152809#9 152809#10 152809#11 152754 152225 152780#0 152814 152939#2 152229 152696#0 152696#1 152696#2 152696#3 152696#4 152696#5 152698 152699 152697#0 152697#1 152708 -152708 -152697#1 -152683#2 -152683#1 -152683#0 152667#1 152667#2 -152770#0 152805#0 152805#1 152805#2 152815 152955#1 152955#2 152955#3 152955#4 152955#5 152955#6 152955#7 152955#8 152955#10 152954#2 152954#3 152954#4 -152812#3 -152812#2 -152812#1 -152812#0 -152771 152758 -152767 -152768" >
        <stop busStop="131137" duration="30.00" until="38.0"/> <!-- Jardin Exotique -->
        <stop busStop="131048" duration="30.00" until="144.0"/> <!-- Villa Paloma -->
        <stop busStop="131138" duration="30.00" until="181.0"/> <!-- Rotondes -->
        <stop busStop="131069" duration="30.00" until="247.0"/> <!-- Moneghetti -->
        <stop busStop="131112" duration="30.00" until="305.0"/> <!-- Belgique -->
        <stop busStop="131079" duration="30.00" until="386.0"/> <!-- Pont Sainte-Devote -->
        <stop busStop="131201" duration="30.00" until="449.0"/> <!-- Roqueville -->
        <stop busStop="131062" duration="30.00" until="543.0"/> <!-- Monte-Carlo -->
        <stop busStop="131063" duration="30.00" until="658.0"/> <!-- Square Beaumarchais -->
        <stop busStop="131132" duration="30.00" until="726.0"/> <!-- Ostende -->
        <stop busStop="131060" duration="30.00" until="800.0"/> <!-- Place Sainte-Devote (Gare) -->
        <stop busStop="131122" duration="30.00" until="852.0"/> <!-- Princesse Florestine -->
        <stop busStop="131084" duration="30.00" until="944.0"/> <!-- Place d'Armes (vers Monaco Ville) -->
        <stop busStop="131116" duration="30.00" until="1046.0"/> <!-- Monaco Ville (le Rocher) -->
    </route>
    <route id="bus_1:SaintRoman" edges="-152768 152769 -152755 -152758 152771 152812#0 152812#1 152812#2 152812#3 152954#5 152954#1 152954#2 152954#3 -152816#2 -152816#1 -152816#0 152132#6 152132#7 -152134 152313#4 152304 152307#3 -152300 152955#5 152955#6 152955#7 152955#8 -153268#2 -153268#1 -152130#1 -152130#0 152797 152813#1 152813#2 152813#3 152384 152382 152811#1 152811#2 152811#3 152811#4 152811#5 152782#0 152782#1 152782#2 152757 152284 152657 152649#2 152649#3 152649#4 152665#3 152672#0 152672#1 152672#2 152672#3 152672#4 152672#5 -152652#2 -152652#1 -152652#0 152662#1 152662#2 152662#3 152662#4 152662#5 152662#6 152662#7 152662#8 152662#9 152662#10 152662#11 152600#1 152600#2 152164 152218 152448 152449#1 -152577#4 -152577#3 -152577#2 152344" >
        <stop busStop="131116" duration="30.00" until="39.0"/> <!-- Monaco Ville (le Rocher) -->
        <stop busStop="131118" duration="30.00" until="305.0"/> <!-- Place d'Armes (Port) -->
        <stop busStop="131044" duration="30.00" until="378.0"/> <!-- Princesse Stephanie -->
        <stop busStop="131092" duration="30.00" until="432.0"/> <!-- Stade Nautique -->
        <stop busStop="131093" duration="30.00" until="487.0"/> <!-- Princesse Antoinette -->
        <stop busStop="131094" duration="30.00" until="580.0"/> <!-- Kennedy -->
        <stop busStop="131095" duration="30.00" until="642.0"/> <!-- Auditorium Rainier III -->
        <stop busStop="131043" duration="30.00" until="729.0"/> <!-- Portier -->
        <stop busStop="131051" duration="30.00" until="835.0"/> <!-- Spelugues -->
        <stop busStop="131050" duration="30.00" until="898.0"/> <!-- Citronniers -->
        <stop busStop="131059" duration="30.00" until="950.0"/> <!-- Place du Casino -->
        <stop busStop="131057" duration="30.00" until="1070.0"/> <!-- Monte-Carlo (Tourisme) -->
        <stop busStop="131061" duration="30.00" until="1130.0"/> <!-- Saint-Charles -->
        <stop busStop="131129" duration="30.00" until="1195.0"/> <!-- Place des Moulins -->
        <stop busStop="131127" duration="30.00" until="1255.0"/> <!-- La Rousse -->
        <stop busStop="131125" duration="30.00" until="1326.0"/> <!-- Carmes -->
        <stop busStop="131166" duration="30.00" until="1394.0"/> <!-- Saint-Roman (Bus 1) -->
    </route>
    <route id="bus_5:Larvotto" edges="152894#1 152894#2 -152865#4 -152865#3 -152865#2 -152865#1 -152865#0 153547#3 153547#0 152940#0 152940#1 152940#2 152809#11 152754 152225 152780#0 152814 152939#2 152229 152696#0 152696#1 152696#2 152696#3 152696#4 152696#5 152698 152699 152662#1 152662#2 152662#3 -152663#2 -152663#1 -152663#0 -152672#4 -152672#3 -152672#2 -152672#1 -152672#0 152649#0 152649#1 152649#2 152529#0 152529#2 152529#4 152529#5 152529#6 152529#7" >
        <stop busStop="131055" duration="30.00" until="53.0"/> <!-- Hopital -->
        <stop busStop="131105" duration="30.00" until="115.0"/> <!-- Observatoire -->
        <stop busStop="131200" duration="30.00" until="173.0"/> <!-- Parc Princesse Antoinette -->
        <stop busStop="131106" duration="30.00" until="233.0"/> <!-- Bosio -->
        <stop busStop="131123" duration="30.00" until="306.0"/> <!-- Belgique -->
        <stop busStop="131079" duration="30.00" until="388.0"/> <!-- Pont Sainte-Devote -->
        <stop busStop="131201" duration="30.00" until="462.0"/> <!-- Roqueville -->
        <stop busStop="131057" duration="30.00" until="581.0"/> <!-- Monte-Carlo (Tourisme) -->
        <stop busStop="131126" duration="30.00" until="660.0"/> <!-- Place du Casino -->
        <stop busStop="131087" duration="30.00" until="734.0"/> <!-- Spelugues -->
        <stop busStop="131043" duration="30.00" until="798.0"/> <!-- Portier -->
        <stop busStop="131108" duration="30.00" until="861.0"/> <!-- Grimaldi Forum/Villa Sauber -->
        <stop busStop="131131" duration="30.00" until="930.0"/> <!-- Plages -->
        <stop busStop="131109" duration="30.00" until="986.0"/> <!-- Sea Club -->
        <stop busStop="131083" duration="30.00" until="1039.0"/> <!-- Larvotto -->
    </route>
    <route id="bus_2:Jardin" edges="-152768 152769 -152755 -152758 152771 152812#0 152812#1 152812#2 152812#3 152954#5 152954#1 152954#2 152954#3 -152816#2 -152816#1 -152816#0 152132#6 152132#7 -152134 152313#4 152304 152307#3 -152300 152955#5 152955#6 152955#7 152955#8 -153268#2 -153268#1 -152130#1 -152130#0 152797 152813#1 152813#2 152813#3 152384 152382 152811#1 152811#2 152811#3 152811#4 152811#5 -152805#2 -152805#1 -152805#0 152770#0 152770#2 152770#3 152770#4 152770#5 -152697#1 -152697#0 152662#1 152662#2 152662#3 152709 152169#0 152169#1 -152696#5 -152696#4 -152696#3 -152696#2 -152696#1 -152696#0 152224 152938#0 152938#1 -152809#11 -152809#10 -152809#9 -152809#8 -152809#7 -152809#6 -152809#5 -152809#4 -152809#3 -152809#2 152891" >
        <stop busStop="131116" duration="30.00" until="38.0"/> <!-- Monaco Ville (le Rocher) -->
        <stop busStop="131118" duration="30.00" until="308.0"/> <!-- Place d'Armes (Port) -->
        <stop busStop="131044" duration="30.00" until="380.0"/> <!-- Princesse Stephanie -->
        <stop busStop="131092" duration="30.00" until="432.0"/> <!-- Stade Nautique -->
        <stop busStop="131093" duration="30.00" until="488.0"/> <!-- Princesse Antoinette -->
        <stop busStop="131096" duration="30.00" until="570.0"/> <!-- Ostende -->
        <stop busStop="131091" duration="30.00" until="633.0"/> <!-- Terrasses du Casino -->
        <stop busStop="131057" duration="30.00" until="733.0"/> <!-- Monte-Carlo (Tourisme) -->
        <stop busStop="131090" duration="30.00" until="829.0"/> <!-- Cremaillere -->
        <stop busStop="131097" duration="30.00" until="913.0"/> <!-- Roqueville -->
        <stop busStop="131047" duration="30.00" until="991.0"/> <!-- Pont Sainte-Devote -->
        <stop busStop="131119" duration="30.00" until="1054.0"/> <!-- Belgique -->
        <stop busStop="131098" duration="30.00" until="1109.0"/> <!-- Moneghetti -->
        <stop busStop="131135" duration="30.00" until="1175.0"/> <!-- Rotondes -->
        <stop busStop="131049" duration="30.00" until="1225.0"/> <!-- Villa Paloma -->
        <stop busStop="131137" duration="30.00" until="1311.0"/> <!-- Jardin Exotique -->
    </route>
    <route id="bus_4:Fontvieille" edges="-152344 -152577#1 -152577#0 152571 152214 152341#1 152216 152211 153371 152216 152580#1 152345 152577#0 152577#1 152577#2 152577#3 152577#4 152449#2 152449#3 152449#4 -152448 -152218 -152164 -152600#2 -152600#1 -152600#0 -152662#10 -152662#9 -152648 -152668 -152654 -152646 -152944 -152656 152709 152169#0 152169#1 -152696#5 -152696#4 -152696#3 -152696#2 -152696#1 -152696#0 152224 152938#0 152788 152780#2 152162 152964#0 152964#1 152964#2 152964#3 -152790#1 152819#0 152819#1 152132#7 -152134 152313#4 152304 152307#3 -152300 152955#5 152955#6 152955#7 152955#8 -153268#2 -153268#1 -152130#1 -152130#0 152797 152813#1 152813#2 152813#3 152384 152784#0 152784#1 152823 152792#1 -152792#1 -152823 -152784#1 -152784#0 152463 152291 153635 153634" >
        <stop busStop="131085" duration="30.00" until="39.0"/> <!-- Saint-Roman (Bus 4) -->
        <stop busStop="131081" duration="30.00" until="150.0"/> <!-- Varavilla -->
        <stop busStop="131163" duration="30.00" until="213.0"/> <!-- Saint-Roman -->
        <stop busStop="131133" duration="30.00" until="284.0"/> <!-- Carmes -->
        <stop busStop="131124" duration="30.00" until="366.0"/> <!-- La Rousse -->
        <stop busStop="131128" duration="30.00" until="424.0"/> <!-- Place des Moulins -->
        <stop busStop="131134" duration="30.00" until="496.0"/> <!-- Saint-Charles -->
        <stop busStop="131090" duration="30.00" until="576.0"/> <!-- Cremaillere -->
        <stop busStop="131097" duration="30.00" until="657.0"/> <!-- Roqueville -->
        <stop busStop="131047" duration="30.00" until="735.0"/> <!-- Pont Sainte-Devote -->
        <stop busStop="131099" duration="30.00" until="803.0"/> <!-- Louis Aureglia -->
        <stop busStop="131045" duration="30.00" until="867.0"/> <!-- Castelleretto -->
        <stop busStop="131046" duration="30.00" until="928.0"/> <!-- Honore II -->
        <stop busStop="131118" duration="30.00" until="1087.0"/> <!-- Place d'Armes (Port) -->
        <stop busStop="131121" duration="30.00" until="1151.0"/> <!-- Princesse Stephanie -->
        <stop busStop="131088" duration="30.00" until="1342.0"/> <!-- Fontvieille - Centre Commercial -->
    </route>
    <route id="bus_6:Fontvieille" edges="152529#7 152530#0 152530#1 152530#2 152530#4 152530#6 152649#4 152665#3 152672#0 152672#1 152672#2 152672#3 152672#4 152672#5 152645#0 152683#0 152683#1 152683#2 152697#1 152708 -152708 -152697#1 -152683#2 -152683#1 -152683#0 152667#1 152667#2 -152770#0 152805#0 152805#1 152805#2 152815 152955#1 152955#2 152955#3 152955#4 152955#5 152955#6 152955#7 152955#8 -153268#2 -153268#1 -152130#1 -152130#0 152797 152813#1 152813#2 152813#3 152384 152784#0 152784#1 152823 152792#1 -152792#1 -152823 -152784#1 -152784#0 152463 152291 153635 153634" >
        <stop busStop="131083" duration="30.00" until="47.0"/> <!-- Larvotto -->
        <stop busStop="131209" duration="30.00" until="112.0"/> <!-- Sea Club -->
        <stop busStop="131080" duration="30.00" until="174.0"/> <!-- Plages -->
        <stop busStop="131110" duration="30.00" until="235.0"/> <!-- Grimaldi Forum/Villa Sauber -->
        <stop busStop="131082" duration="30.00" until="293.0"/> <!-- Portier -->
        <stop busStop="131051" duration="30.00" until="368.0"/> <!-- Spelugues -->
        <stop busStop="131050" duration="30.00" until="432.0"/> <!-- Citronniers -->
        <stop busStop="131059" duration="30.00" until="485.0"/> <!-- Place du Casino -->
        <stop busStop="131062" duration="30.00" until="562.0"/> <!-- Monte-Carlo -->
        <stop busStop="131063" duration="30.00" until="680.0"/> <!-- Square Beaumarchais -->
        <stop busStop="131132" duration="30.00" until="746.0"/> <!-- Ostende -->
        <stop busStop="131060" duration="30.00" until="809.0"/> <!-- Place Sainte-Devote (Gare) -->
        <stop busStop="131122" duration="30.00" until="860.0"/> <!-- Princesse Florestine -->
        <stop busStop="131118" duration="30.00" until="996.0"/> <!-- Place d'Armes (Port) -->
        <stop busStop="131121" duration="30.00" until="1060.0"/> <!-- Princesse Stephanie -->
        <stop busStop="131088" duration="30.00" until="1254.0"/> <!-- Fontvieille - Centre Commercial -->
    </route>
    <route id="bus_6:Larvotto" edges="153634 152869#4 152869#5 152869#0 152446 152453#0 152453#1 152453#2 152393#0 152393#1 152641 -152293 -152868#3 -152868#2 -152868#1 -152868#0 152978 152977#3 -152895#1 -152895#0 152970#3 152970#4 152878#0 152878#1 152878#2 152869#5 152869#0 152869#1 152869#2 153633 152292#0 152292#0-AddedOffRampEdge 152292#1 152962 152811#2 152811#3 152811#4 152811#5 -152805#2 -152805#1 -152805#0 152770#0 152770#2 152770#3 152770#4 152770#5 -152697#1 -152697#0 152662#1 152662#2 152662#3 -152663#2 -152663#1 -152663#0 -152672#4 -152672#3 -152672#2 -152672#1 -152672#0 152649#0 152649#1 152649#2 152529#0 152529#2 152529#4 152529#5 152529#6 152529#7" >
        <stop busStop="131088" duration="30.00" until="44.0"/> <!-- Fontvieille - Centre Commercial -->
        <stop busStop="131102" duration="30.00" until="122.0"/> <!-- Papalins -->
        <stop busStop="131058" duration="30.00" until="193.0"/> <!-- Roseraie -->
        <stop busStop="131101" duration="30.00" until="247.0"/> <!-- Heliport -->
        <stop busStop="131202" duration="30.00" until="307.0"/> <!-- Stade Louis II -->
        <stop busStop="131208" duration="30.00" until="399.0"/> <!-- Albert II -->
        <stop busStop="131103" duration="30.00" until="466.0"/> <!-- Port de Fontvieille -->
        <stop busStop="131092" duration="30.00" until="553.0"/> <!-- Stade Nautique -->
        <stop busStop="131093" duration="30.00" until="608.0"/> <!-- Princesse Antoinette -->
        <stop busStop="131096" duration="30.00" until="680.0"/> <!-- Ostende -->
        <stop busStop="131091" duration="30.00" until="743.0"/> <!-- Terrasses du Casino -->
        <stop busStop="131057" duration="30.00" until="840.0"/> <!-- Monte-Carlo (Tourisme) -->
        <stop busStop="131126" duration="30.00" until="919.0"/> <!-- Place du Casino -->
        <stop busStop="131087" duration="30.00" until="994.0"/> <!-- Spelugues -->
        <stop busStop="131043" duration="30.00" until="1058.0"/> <!-- Portier -->
        <stop busStop="131108" duration="30.00" until="1122.0"/> <!-- Grimaldi Forum/Villa Sauber -->
        <stop busStop="131131" duration="30.00" until="1192.0"/> <!-- Plages -->
        <stop busStop="131109" duration="30.00" until="1247.0"/> <!-- Sea Club -->
        <stop busStop="131083" duration="30.00" until="1302.0"/> <!-- Larvotto -->
    </route>
    <route id="bus_4:SaintRoman" edges="153634 152869#4 152869#5 152869#0 152446 152453#0 152453#1 152453#2 152393#0 152393#1 152641 -152293 -152868#3 -152868#2 -152868#1 -152868#0 152978 152977#3 152977#4 152968 -152890#1 -153471#0 152413 152265 152414#0 152414#1 152303 152313#3 152134 152132#0 152132#1 152132#2 152132#3 152132#4 152132#5 152816#0 152816#1 152816#2 152954#4 152954#5 152954#1 152954#2 152954#3 -152816#2 -152816#1 -152816#0 152132#6 152132#7 152132#0 152133 152963 152414#0 -152933#2 -152933#1 -152933#0 152397#3 152894#0 152894#1 152894#2 -152865#4 -152827#6 -152827#5 -152827#4 -152827#3 -152827#2 -152827#1 -152827#0 -152982#1 -152982#0 -152964#3 -152964#2 -152964#1 -152964#0 -152162 152939#0 152939#1 152939#2 152229 152696#0 152696#1 152696#2 152696#3 152696#4 152696#5 152698 152699 152662#1 152662#2 152662#3 152662#4 152662#5 152662#6 152662#7 152662#8 152662#9 152662#10 152662#11 152600#1 152600#2 152164 152218 152448 152449#1 -152577#4 -152577#3 -152577#2 -152577#1 -152344" >
        <stop busStop="131088" duration="30.00" until="44.0"/> <!-- Fontvieille - Centre Commercial -->
        <stop busStop="131102" duration="30.00" until="124.0"/> <!-- Papalins -->
        <stop busStop="131058" duration="30.00" until="194.0"/> <!-- Roseraie -->
        <stop busStop="131101" duration="30.00" until="247.0"/> <!-- Heliport -->
        <stop busStop="131202" duration="30.00" until="308.0"/> <!-- Stade Louis II -->
        <stop busStop="131188" duration="30.00" until="399.0"/> <!-- Cimetiere -->
        <stop busStop="131115" duration="30.00" until="519.0"/> <!-- Place d'Armes (Charles III) -->
        <stop busStop="131100" duration="30.00" until="885.0"/> <!-- Castelleretto -->
        <stop busStop="131036" duration="30.00" until="940.0"/> <!-- Louis Aureglia -->
        <stop busStop="131079" duration="30.00" until="1013.0"/> <!-- Pont Sainte-Devote -->
        <stop busStop="131201" duration="30.00" until="1094.0"/> <!-- Roqueville -->
        <stop busStop="131057" duration="30.00" until="1187.0"/> <!-- Monte-Carlo (Tourisme) -->
        <stop busStop="131061" duration="30.00" until="1245.0"/> <!-- Saint-Charles -->
        <stop busStop="131129" duration="30.00" until="1311.0"/> <!-- Place des Moulins -->
        <stop busStop="131127" duration="30.00" until="1373.0"/> <!-- La Rousse -->
        <stop busStop="131125" duration="30.00" until="1445.0"/> <!-- Carmes -->
        <stop busStop="131085" duration="30.00" until="1516.0"/> <!-- Saint-Roman (Bus 4) -->
    </route>
    <route id="bus_5:Hopital" edges="152529#7 152530#0 152530#1 152530#2 152530#4 152530#6 152649#4 152665#3 152672#0 152672#1 152672#2 152672#3 152672#4 152672#5 -152652#2 -152652#1 -152652#0 152662#1 152662#2 152662#3 152709 152169#0 152169#1 -152696#5 -152696#4 -152696#3 -152696#2 -152696#1 -152696#0 152224 152938#0 152938#1 -152809#11 -152940#2 -152940#1 -152940#0 153547#1 153547#2 152865#0 152865#1 152865#2 152865#3 152865#4 152865#5 -152894#1 -152894#0 152397#0 152397#1 152397#2 152933#0 152933#1 152933#2 152414#1 152303 152313#3 152134 152132#0 152133 152963 152414#0 -152933#2 -152933#1 -152933#0 152397#3 152894#0 152894#1" >
        <stop busStop="131083" duration="30.00" until="47.0"/> <!-- Larvotto -->
        <stop busStop="131209" duration="30.00" until="111.0"/> <!-- Sea Club -->
        <stop busStop="131080" duration="30.00" until="171.0"/> <!-- Plages -->
        <stop busStop="131110" duration="30.00" until="231.0"/> <!-- Grimaldi Forum/Villa Sauber -->
        <stop busStop="131082" duration="30.00" until="288.0"/> <!-- Portier -->
        <stop busStop="131051" duration="30.00" until="359.0"/> <!-- Spelugues -->
        <stop busStop="131050" duration="30.00" until="419.0"/> <!-- Citronniers -->
        <stop busStop="131059" duration="30.00" until="471.0"/> <!-- Place du Casino -->
        <stop busStop="131057" duration="30.00" until="553.0"/> <!-- Monte-Carlo (Tourisme) -->
        <stop busStop="131090" duration="30.00" until="621.0"/> <!-- Cremaillere -->
        <stop busStop="131097" duration="30.00" until="708.0"/> <!-- Roqueville -->
        <stop busStop="131047" duration="30.00" until="787.0"/> <!-- Pont Sainte-Devote -->
        <stop busStop="131203" duration="30.00" until="858.0"/> <!-- Belgique -->
        <stop busStop="131107" duration="30.00" until="916.0"/> <!-- Bosio -->
        <stop busStop="131199" duration="30.00" until="988.0"/> <!-- Parc Princesse Antoinette -->
        <stop busStop="131086" duration="30.00" until="1064.0"/> <!-- Hopital -->
        <stop busStop="131056" duration="30.00" until="1335.0"/> <!-- Athanee -->
        <stop busStop="131055" duration="30.00" until="1407.0"/> <!-- Hopital -->
    </route>
    <route id="bus_3:Fontvieille" edges="152831#6 152809#3 152809#4 152809#5 152809#6 152809#7 152809#8 152809#9 152809#10 -152940#2 -152940#1 -152940#0 153547#1 153547#2 152865#0 152865#1 152865#2 152865#3 152865#4 152865#5 -152894#1 -152894#0 152397#0 152397#1 152397#2 152933#0 152933#1 152933#2 152414#1 152303 152313#3 152134 152132#0 152132#1 152132#2 152132#3 152132#4 152132#5 152816#0 152816#1 152816#2 152954#4 152954#5 152954#1 152954#2 152954#3 -152816#2 -152816#1 -152816#0 152132#6 152132#7 -152134 152313#4 152304 152307#3 -152300 152955#5 152955#6 152955#7 152955#8 -153268#2 -153268#1 -152130#1 -152130#0 152797 152813#1 152813#2 152813#3 152384 152784#0 152784#1 152823 152792#1 -152792#1 -152823 -152784#1 -152784#0 152463 152291 153635 153634" >
        <stop busStop="131111" duration="30.00" until="43.0"/> <!-- Hector Otto -->
        <stop busStop="131048" duration="30.00" until="111.0"/> <!-- Villa Paloma -->
        <stop busStop="131136" duration="30.00" until="168.0"/> <!-- Rotondes -->
        <stop busStop="131069" duration="30.00" until="219.0"/> <!-- Moneghetti -->
        <stop busStop="131112" duration="30.00" until="278.0"/> <!-- Belgique -->
        <stop busStop="131203" duration="30.00" until="327.0"/> <!-- Belgique -->
        <stop busStop="131107" duration="30.00" until="388.0"/> <!-- Bosio -->
        <stop busStop="131199" duration="30.00" until="459.0"/> <!-- Parc Princesse Antoinette -->
        <stop busStop="131086" duration="30.00" until="535.0"/> <!-- Hopital -->
        <stop busStop="131117" duration="30.00" until="613.0"/> <!-- Athanee -->
        <stop busStop="131054" duration="30.00" until="691.0"/> <!-- Cimetiere -->
        <stop busStop="131115" duration="30.00" until="830.0"/> <!-- Place d'Armes (Charles III) -->
        <stop busStop="131118" duration="30.00" until="1010.0"/> <!-- Place d'Armes (Port) -->
        <stop busStop="131121" duration="30.00" until="1072.0"/> <!-- Princesse Stephanie -->
        <stop busStop="131088" duration="30.00" until="1266.0"/> <!-- Fontvieille - Centre Commercial -->
    </route>
    <route id="bus_3:Otto" edges="153633 152292#0 152292#0-AddedOffRampEdge 152292#1 152962 152811#2 152811#3 152811#4 152811#5 152815 152955#1 152955#2 152955#3 152955#4 152955#5 152955#6 152955#7 152955#8 152955#10 152954#2 152954#3 -152816#2 -152816#1 -152816#0 152132#6 152132#7 152132#0 152133 152963 152414#0 -152933#2 -152933#1 -152933#0 152397#3 152894#0 152894#1 152894#2 -152865#4 -152865#3 -152865#2 -152865#1 -152865#0 153547#3 153547#0 152940#0 152940#1 152940#2 -152809#10 -152809#9 -152809#8 -152809#7 -152809#6 -152809#5 -152809#4 -152809#3 -152831#6 -152831#5 -152831#4 -152831#3 -152831#2 -152386 152831#3 152831#4 152831#5 152831#6" >
        <stop busStop="131103" duration="30.00" until="41.0"/> <!-- Port de Fontvieille -->
        <stop busStop="131092" duration="30.00" until="131.0"/> <!-- Stade Nautique -->
        <stop busStop="131093" duration="30.00" until="187.0"/> <!-- Princesse Antoinette -->