<?xml version="1.0" encoding="UTF-8"?>

<!--
    Monaco SUMO Traffic (MoST) Scenario
    Copyright (C) 2018
    Lara CODECA

    This program is free software: you can redistribute it and/or modify
    it under the terms of the GNU General Public License as published by
    the Free Software Foundation, either version 3 of the License, or
    (at your option) any later version.

    This program is distributed in the hope that it will be useful,
    but WITHOUT ANY WARRANTY; without even the implied warranty of
    MERCHANTABILITY or FITNESS FOR A PARTICULAR PURPOSE.  See the
    GNU General Public License for more details.

    You should have received a copy of the GNU General Public License
    along with this program.  If not, see <http://www.gnu.org/licenses/>.
-->

<routes xmlns:xsi="http://www.w3.org/2001/XMLSchema-instance" xsi:noNamespaceSchemaLocation="http://sumo.dlr.de/xsd/routes_file.xsd"> 
    <vehicle id="special_3-1_76" type="special" depart="18037" departLane="best" arrivalPos="random">
        <route edges="-152849 153458#4 153458#5 153458#6 153009#6 152408 153638#1 153004#0 152840 153007#1 152236 153340 153643 152331#0 152406 152331#2 152331#3 152331#4 152331#5 152331#6 152331#7 152167 152169#0 152169#1 152400#1 152400#2 152903#0 152903#1 152321 152404 -152960 152897#1 152897#2 152984#0 152984#1 152984#2 152984#3 -152902#1 -152902#0 152977#3 152977#4 152885#0 152885#1 152885#2 152876#5 152876#0 152876#1 152877#0 152877#1"/>
    </vehicle>
    <vehicle id="special_3-1_87" type="special" depart="18037" departLane="best" arrivalPos="random">
        <route edges="153454#0 153454#1 153454#2 153453#1 153453#2 153453#3 153453#4 153453#5 153453#6 153453#7 153435#1 152736#0 -152738#2 -152738#1 -152738#0 153393#0 153393#1 153394#1 153389#1 153389#2 -152630#1 -152630#0 -153386#1 -153386#0 -152178 -152177#2 -152177#1 -152177#0 -153385#0 -152251 -153387#1 -153387#0 -152252 -153414#5 -153331#5 -153331#4 -153331#3 -153331#2 -153331#1 -153331#0 152935#3 -153401#1 -153401#0 152651#0 152651#1 152651#2 152651#3 152651#4 152651#5 153408#0 153408#1 153408#2 152681 152680 152544 152649#0 152649#1 152649#2 153398#0 153398#1"/>
    </vehicle>
    <vehicle id="special_1-3_106" type="special" depart="18047" departLane="best" arrivalPos="random">
        <route edges="152292 152763 152291 152288 152656#1 152656#2 152656#3 152656#4 152672#3 152672#4 152283 -152291 -152763 -152292 -152802 -152293 -152796 152294 152386 -152207 152463 152312 152313#2 -152310 152319#1 152319#2 -152309 152282 152532 -152331#7 -152331#6 -152331#5 -152331#4 -152331#3 -152331#2 -152331#1 -152331#0 153639 153636#1 153638#1 153004#0 153004#1 -153460#1 -153460#0 -153461#0 -152257 153462 -153462 152257 153461#0 153461#1"/>
    </vehicle>
    <vehicle id="special_1-3_71" type="special" depart="18052" departLane="best" arrivalPos="random">
        <route edges="-152650#6 -152650#5 -152650#4 -152650#3 -152650#2 -152650#1 153402 153403 152649#2 153407#0 153407#1 153407#2 153407#3 153408#0 153408#1 153408#2 152942 152686 152175#1 -152703#5 -152703#4 -152703#3 -152703#2 -152703#1 -152703#0 152230 152945#0 152945#1 -152816#11 -152816#10 -152816#9 -152816#8 -152816#7 -152816#6 -152816#5 -152816#4 -152816#3 -152816#2 -152816#1 -152816#0 152991 -152903#1 -152903#0 152400#3 152400#0 -152169#1 -152169#0 -152167 -152331#7 -152331#6 -152331#5 -152331#4 -152331#3 -152331#2 -152331#1 -152331#0 153639 153636#1 153638#1 153004#0 153004#1 -153460#1 -153460#0 -153459"/>
    </vehicle>
    <vehicle id="special_1-1_201" type="special" depart="18109" departLane="best" arrivalPos="random">
        <route edges="-152838#4 -152838#3 -152838#2 -152392 152838#3 152838#4 152838#5 152838#6 152816#3 152816#4 152816#5 152816#6 152816#7 152816#8 152816#9 152816#10 152816#11 152761 152231 152787#0 152821 152946#2 152235 152703#0 152703#1 152703#2 152703#3 152703#4 152703#5 152705 152706 152669#1 152669#2 152669#3 152669#4 152669#5 152669#6 152669#7 152669#8 152669#9 152669#10 152669#11 152607#1 152607#2 152604 -152171#1 -152171#0 -152225 152589#0 152589#1 152615 -152615 -152589#1 -152589#0"/>
    </vehicle>
    <vehicle id="special_1-3_110" type="special" depart="18123" departLane="best" arrivalPos="random">
        <route edges="152818#4 -152813 152387#0 152833#1 152833#2 152306 152313#0 152313#1 152313#2 -152310 152319#1 152319#2 -152309 152282 152532 -152331#7 -152331#6 -152331#5 -152331#4 -152331#3 -152331#2 -152331#1 -152331#0 153639 153636#1 153638#1 153004#0 153004#1 -153460#1 -153460#0"/>
    </vehicle>
    <vehicle id="special_1-3_245" type="special" depart="18127" departLane="best" arrivalPos="random">
        <route edges="153275#2 152962#10 152961#2 152961#3 -152823#2 -152823#1 -152823#0 152138#6 152138#7 -152140 152319#4 152319#1 152319#2 -152309 152282 152532 -152331#7 -152331#6 -152331#5 -152331#4 -152331#3 -152331#2 -152331#1 -152331#0 153639 153636#1 153638#1 153004#0 153004#1 -153460#1 -153460#0 -153461#0"/>
    </vehicle>
    <vehicle id="special_1-2_221" type="special" depart="18130" departLane="best" arrivalPos="random">
        <route edges="152537#2 152537#4 152537#6 152656#4 152672#3 152672#4 152283 -152291 -152763 -152292 -152802 -152293 -152796 152294 152386 -152207 152463 152312 152313#2 -152310 152319#1 152319#2 -152309 152282 152532 -152331#7 -152331#6 -152331#5 -152331#4 -152331#3 -152331#2 -152331#1 -152331#0 -152411#3"/>
    </vehicle>
    <vehicle id="special_2-1_274" type="special" depart="18133" departLane="best" arrivalPos="random">
        <route edges="152939#4 -152608#6 -152608#5 -152608#4 -152608#3 -152608#2 -152619 -152612 -152607#2 -152607#1 -152607#0 -152669#10 -152669#9 -152669#8 -152669#7 -152669#6 -152669#5 -152669#4 -152669#3 -152669#2 -152669#1 152704#0 152704#1 -152941#5 -152769#3 -152769#2 -152769#1"/>
    </vehicle>
    <vehicle id="special_3-1_181" type="special" depart="18182" departLane="best" arrivalPos="random">
        <route edges="153396#2 -152481 152481 -153396#2 -153396#1 -153396#0 -152415#2 -152415#1 -152415#0 152414 152446#1 -153437#3 -153437#2 -153437#1 -153437#0 153453#6 153453#7 153435#1 152736#0 -152738#2 -152738#1 -152738#0 153393#0 153393#1 153394#1 153389#1 153389#2 -152630#1 -152630#0 -153386#1 -153386#0 -152178 -152177#2 -152177#1 -152177#0 -153385#0 -152251 -153387#1 -153387#0 -152252 -153414#5 -153331#5 -153331#4 -153333#11 -153333#10 -153333#9 -153333#8 -153333#7 -153333#6 -153333#5 -153333#4 -153333#2 -153333#1 -153333#0 -153417#1 -153417#0 153415#14 153415#15 153415#16 152999 153001 152708#0 152708#1 152708#2 152708#3 152703#3 152703#4"/>
    </vehicle>
    <vehicle id="special_2-1_223" type="special" depart="18196" departLane="best" arrivalPos="random">
        <route edges="-153367#4 -153367#3 -153367#1 -153367#0 152347#1 152222 152587#1 152351 152584#0 152584#1 152584#2 152584#3 152584#4 152456#2 152456#3 152456#4 -152455 -152224 -152170 -152607#2 -152607#1 -152607#0 -152669#10 -152669#9 -152669#8 -152669#7 -152669#6 -152669#5 -152669#4 152716 152175#0 152175#1 -152703#5 -152703#4 -152703#3 -152703#2 -152703#1 -152703#0 152230 152945#0 152945#1 -152816#11 -152816#10 -152816#9 -152816#8 -152816#7 -152816#6 -152816#5 -152816#4 -152816#3 -152816#2 -152816#1 -152898 152816#2 152816#3 152816#4 152816#5 152816#6"/>
    </vehicle>
    <vehicle id="special_2-1_175" type="special" depart="18208" departLane="best" arrivalPos="random">
        <route edges="153476 -153478#25 -153478#24 -153478#23 -153478#22 -153478#20 -153478#19 -153478#18 -153478#17 -153478#16 -153478#15 -153478#14 -153478#13 -153478#12 -153478#11 -153478#10 -153478#9 -153478#8 -153478#7 -153478#6 -153478#5 -153478#3 -153478#2 -153478#1 -153478#0 152420 152271 152421#0 152421#1 152309 152319#3 152319#4 152310 152313#3 152313#0 152272 152425 152207 -152386 -152294 152796 152293 152802 152292 152763 152291 152288 152656#1 152656#2 152536#0 152536#2"/>
    </vehicle>
    <vehicle id="special_2-1_288" type="special" depart="18215" departLane="best" arrivalPos="random">
        <route edges="152549 -152994 -153494 -153359#2 -153356#2 -153356#1 -153356#0 -153361#1 -153361#0 -152560#6 -152560#5 -152560#3 -152560#2 -152560#1 -152560#0 153374#1 153482#0 153482#1 153482#2 153482#3 153482#4 153482#5 153482#6 153482#7 152587#1 152351 152584#0 152584#1 152584#2 152584#3 152584#4 152456#2 152456#3 152456#4 152456#1 -152584#4"/>
    </vehicle>
    <vehicle id="special_1-3_227" type="special" depart="18227" departLane="best" arrivalPos="random">
        <route edges="-152783 152667 -152777#2 -152777#0 152812#0 152812#1 152812#2 152822 152962#1 152962#2 152962#3 152962#4 152306 152313#0 152313#1 152313#2 -152310 152319#1 152319#2 -152309 152282 152532 -152331#7 -152331#6 -152331#5 -152331#4 -152331#3 -152331#2 -152331#1 -152331#0 153639 153636#1 153638#1 153004#0 153004#1 -153460#1 -153460#0 -153459"/>
    </vehicle>
    <vehicle id="special_2-1_237" type="special" depart="18246" departLane="best" arrivalPos="random">
        <route edges="-152914#4 -152914#3 -152914#2 -152914#1 -152914#0 153011#0 153011#1 152914#0 152914#1 152914#2 152914#3 152914#4 152914#5 152914#6 152914#8 152984#1 152984#2 152984#3 -152902#1 -152902#0 152977#3 152977#4 152885#0 152885#1 152885#2 152876#5 152876#0 152876#1 152876#2 153640 152298#0 152298#0-AddedOffRampEdge 152298#1 152969 152818#2 152818#3 152818#4 152818#5 -152812#2 -152812#1 -152806 152941#1 152941#2 152548 -152769#2 -152782 152703#3 152703#4 152703#5 152705 152707#0 152707#1 152176 152680 152544 152649#0 152650#0 152650#1 152650#2 152650#3 152650#4 152650#5 152650#6"/>
    </vehicle>
    <vehicle id="special_1-2_33" type="special" depart="18246" departLane="best" arrivalPos="random">
        <route edges="152942 152686 152175#1 -152703#5 -152703#4 -152703#3 -152703#2 -152703#1 -152703#0 152230 152945#0 152945#1 -152816#11 -152816#10 -152816#9 -152816#8 -152814#5 -152814#4 -152814#3 -152814#2 -152814#1 -152814#0 -153443#0 -153447#1 -153447#0 -153406#8 -153406#7 -153406#6 -153406#5 -153406#4 -153406#3"/>
    </vehicle>
    <vehicle id="special_1-3_128" type="special" depart="18248" departLane="best" arrivalPos="random">
        <route edges="-152679#4 -152679#3 -152679#2 -152679#1 -152679#0 152672#4 152283 -152291 -152763 -152292 -152802 -152293 -152796 152294 152386 -152207 152463 152312 152313#2 -152310 152319#1 152319#2 -152309 152282 152532 -152331#7 -152331#6 -152331#5 -152331#4 -152331#3 -152331#2 -152331#1 -152331#0 153639 153636#1 153638#1 153004#0 152840 153007#1 152236 153340 153643"/>
    </vehicle>
    <vehicle id="special_1-3_99" type="special" depart="18251" departLane="best" arrivalPos="random">
        <route edges="152825#1 152825#2 152825#3 152794#0 152794#1 -152834#0 -152989#1 -152989#0 -152797#1 152826#0 152826#1 152138#7 -152140 152319#4 152319#1 152319#2 -152309 152282 152532 -152331#7 -152331#6 -152331#5 -152331#4 -152331#3 -152331#2 -152331#1 -152331#0 153639 153636#1 153638#1 153004#0 153004#1 -153460#1 152905"/>
    </vehicle>
    <vehicle id="special_1-2_67" type="special" depart="18257" departLane="best" arrivalPos="random">
        <route edges="-152715 -152777#5 -152777#4 -152777#3 -152777#2 -152777#0 152812#0 152812#1 152812#2 152822 152962#1 152962#2 152962#3 152962#4 152306 152313#0 152313#1 152313#2 -152310 152319#1 152318 -152900#2 -152900#1 -152900#0 153562 152977#2 152977#3 152888#0 152968#0 152968#1 152460#1 -152397#2 -152397#1 -152875#1"/>
    </vehicle>
    <vehicle id="special_2-1_22" type="special" depart="18266" departLane="best" arrivalPos="random">
        <route edges="-152960 152897#1 -152423 -152133 152420 152271 152421#0 152421#1 152309 152319#3 152319#4 152310 152313#3 -152306 152962#5 152962#6 152962#7"/>
    </vehicle>
    <vehicle id="special_1-3_93" type="special" depart="18307" departLane="best" arrivalPos="random">
        <route edges="-152695#2 -152695#1 -152695#0 152711#2 -152708#0 -153001 -152999 -153415#16 -153415#15 -153415#14 153417#0 153417#1 153333#0 153333#1 153333#2 153333#4 153333#5 153333#6 153333#7 153333#8 153333#9 153333#10 153333#11 153331#4 153331#5 153414#5 152252 153387#0 153387#1 152251 153385#0 -153388 152177#1 152177#2 152178 153386#0 153386#1 153386#2 152630#1 -153389#2 -153389#1 -153394#1 -153393#1 -153393#0 152738#0 152738#1 152738#2 -152736#0 -153426#0 -153435#0 -153453#6 153437#0 153437#1 153437#2 153437#3 152418#1 152415#0 152415#1 152415#2 152415#3 152253 153397"/>
    </vehicle>
    <vehicle id="special_1-1_230" type="special" depart="18309" departLane="best" arrivalPos="random">
        <route edges="152812#2 152789#0 152789#1 152789#2 152764 152290 152664 152656#2 152536#0 152536#2 -152482"/>
    </vehicle>
    <vehicle id="special_2-1_134" type="special" depart="18320" departLane="best" arrivalPos="random">
        <route edges="-152910#5 -152931 -152910#0 153435#1 152736#0 -152738#2 -152738#1 -152738#0 153393#0 153393#1 153394#1 153389#1 153389#2 -152630#1 -152630#0 -153386#1 -153386#0 -152178 -152177#2 -152177#1 -152177#0 -153385#0 -152251 -153387#1 -153387#0 -152252 -153414#5 -153331#5 -153331#4 -153333#11 -153333#10 -153333#9 -153333#8 -153333#7 -153333#6 -153333#5 -153333#4 -153333#2 -153333#1 -153333#0 -153417#1 -153417#0 153415#14 153415#15 153415#16 152999 153001 152708#0 152708#1 152708#2 152708#3 -152703#2 -152703#1 -152703#0 152468#0"/>
    </vehicle>
    <vehicle id="special_1-3_228" type="special" depart="18326" departLane="best" arrivalPos="random">
        <route edges="152404 152420 152271 152421#0 152421#1 152282 152532 -152331#7 -152331#6 -152331#5 -152331#4 -152331#3 -152331#2 -152331#1 -152331#0 153639 153636#1 153638#1 153004#0 153004#1 -153460#1 -153460#0 -153461#0 -152257 153462 -153462 152257 153461#0 153461#1"/>
    </vehicle>
    <vehicle id="special_3-1_173" type="special" depart="18353" departLane="best" arrivalPos="random">
        <route edges="153461#1 153460#1 153007#0 153007#1 152236 153340 153643 152331#0 152406 152331#2 152331#3 152331#4 152331#5 152331#6 152331#7 152167 152169#0 152169#1 152400#1 152400#2 152903#0 152903#1 152990 152816#0 152816#1 152816#2 152816#3 152816#4 152816#5 152816#6 152816#7 152816#8 152816#9 152816#10 152816#11 152761 152231 152787#0 152821 152946#2 152235 152703#0 152703#1 152703#2 152703#3 152703#4 152703#5 152705 152707#0 152707#1 152176 152680 152544 152649#0 152649#1 -153403"/>
    </vehicle>
    <vehicle id="special_1-3_51" type="special" depart="18354" departLane="best" arrivalPos="random">
        <route edges="-152783 152667 -152777#2 -152777#0 152812#0 152812#1 152812#2 152822 152962#1 152962#2 152962#3 152962#4 152306 152313#0 152313#1 152313#2 -152310 152319#1 152319#2 -152309 152282 152532 -152331#7 -152331#6 -152331#5 -152331#4 -152331#3 -152331#2 -152331#1 -152331#0 153639 153636#1 153638#1 153004#0 153004#1 -153460#1 152905"/>
    </vehicle>
    <vehicle id="special_1-2_59" type="special" depart="18381" departLane="best" arrivalPos="random">
        <route edges="-152666#5 -152666#4 -152666#3 -152666#2 -152666#1 -152666#0 152364#1 152364#2 152364#3 152364#0 152666#0 152666#1 152666#2 152666#3 152666#4 152666#5 152666#6 152670#2 152716 152175#0 152175#1 -152703#5 -152703#4 -152703#3 -152703#2 -152703#1 -152703#0 152230 152945#0 152945#1 -152816#11 -152947#2 -152947#1 -152947#0 153554#1 153554#2 152872#0 152872#1 152872#2 152872#3 152872#4 152872#5 153008#0"/>
    </vehicle>
    <vehicle id="special_1-3_26" type="special" depart="18383" departLane="best" arrivalPos="random">
        <route edges="152937 152808 -152805 -152801 -152762 -152765 152778 152819#0 152819#1 152819#2 152819#3 152961#5 152961#1 152961#2 152961#3 -152823#2 -152823#1 -152823#0 152138#6 152138#7 -152140 152319#4 152319#1 152319#2 -152309 152282 152532 -152331#7 -152331#6 -152331#5 -152331#4 -152331#3 -152331#2 -152331#1 -152331#0 153639 153636#1 153638#1 153004#0 153004#1 -153460#1 -153460#0"/>
    </vehicle>
    <vehicle id="special_2-1_139" type="special" depart="18384" departLane="best" arrivalPos="random">
        <route edges="-152921#1 -152921#0 -153478#20 -153478#19 -153478#18 -153478#17 -153478#16 -153478#15 -153478#14 -153478#13 -153478#12 -153478#11 -153478#10 -153478#9 -153478#8 -153478#7 -153478#6 -153478#5 -153478#3 -153478#2 -153478#1 -153478#0 152420 152271 152421#0 152421#1 152309 152319#3 152319#4 152310 152313#3 -152306 -152833#2 -152833#1 -152387#0 152813 152818#5 -152812#2 -152812#1 -152806 152941#1 152941#2 152941#4 152941#5 -152704#1 -152704#0 152669#1 152669#2 152669#3 152669#4 152669#5 152669#6 152669#7 152669#8 152669#9 152669#10 152669#11 152607#1 152607#2 152170 152224 152455 152456#1 -152584#4"/>
    </vehicle>
    <vehicle id="special_3-1_83" type="special" depart="18487" departLane="best" arrivalPos="random">
        <route edges="-153459 153454#1 153454#2 153453#1 153453#2 153453#3 153453#4 153453#5 153453#6 153453#7 153435#1 152736#0 -152738#2 -152738#1 -152738#0 153393#0 153393#1 153394#1 153389#1 153389#2 -152630#1 -152630#0 -153386#1 -153386#0 -152178 -152177#2 -152177#1 -152177#0 -153385#0 -152251 -153387#1 -153387#0 -152252 -153414#5 -153331#5 -153331#4 -153333#11 -153333#10 -153333#9 -153333#8 -153333#7 -153333#6 -153333#5 -153333#4 -153333#2 -153333#1 -153333#0 -153417#1 -153417#0 153415#14 153415#15 153415#16 152999 153001 152708#0 152708#1 152717 152713#0 152713#1 152713#2 -152712"/>
    </vehicle>
    <vehicle id="special_3-1_275" type="special" depart="18503" departLane="best" arrivalPos="random">
        <route edges="153479#1 152303 153344 152304 -153478#26 -153478#25 -153478#24 -153478#23 -153478#22 -153478#20 -153478#19 -153478#18 -153478#17 -153478#16 -153478#15 -153478#14 -153478#13 -153478#12 -153478#11 -153478#10 -153478#9 -153478#8 -153478#7 -153478#6 -153478#5 -153478#3 -153478#2 -153478#1 152897#1 152897#2 152984#0 152984#1 152984#2 -152985 152875#0 152875#1 152875#2 152875#3 152299 -152648 152399#2 152399#3 152860 -152399#4 -152399#3"/>
    </vehicle>
    <vehicle id="special_3-1_35" type="special" depart="18504" departLane="best" arrivalPos="random">
        <route edges="152415#3 152253 153397 152254 -153438 153438 -152254 -153397 -152253 -152415#3 -152415#2 -152415#1 -152415#0 152414 152446#1 -153437#3 -153437#2 -153437#1 -153437#0 153453#6 153453#7 153435#1 152736#0 -152738#2 -152738#1 -152738#0 153393#0 153393#1 153394#1 153389#1 153389#2 -152630#1 -152630#0 -153386#1 -153386#0 -152178 -152177#2 -152177#1 -152177#0 -153385#0 -152251 -153387#1 -153387#0 -152252 -153414#5 -153331#5 -153331#4 -153333#11 -153333#10 -153333#9 -153333#8 -153333#7 -153333#6 -153333#5 -153333#4 -153333#2 -153333#1 -153333#0 -153417#1 -153417#0 153415#14 153415#15 153415#16 152999 153001 152708#0 152708#1 152708#2 152708#3 152782 152769#2 -152548 -152783"/>
    </vehicle>
    <vehicle id="special_1-1_10" type="special" depart="18505" departLane="best" arrivalPos="random">
        <route edges="152762 -152776 152775 152774 -152765 152778 152819#0 152819#1 152819#2 152819#3 152961#5 152781 152820#0 152820#1 152820#2 152820#3 152820#4 152818#0 152818#1 152818#2 152818#3 152818#4 152818#5 -152812#2 -152812#1 -152806 152941#1 152941#2 152548 -152769#2 -152769#1 -152769#0 -152703#0 152468#0 152468#1"/>
    </vehicle>
    <vehicle id="special_1-2_45" type="special" depart="18519" departLane="best" arrivalPos="random">
        <route edges="152877#1 152877#2 -152399#4 -152399#3 -152399#2 -152399#1 -152399#0 152460#3 -152453 152876#1 152876#2 153640 152298#0 152298#0-AddedOffRampEdge 152298#1 152969 152818#2 152818#3 152818#4 152818#5 -152812#2 -152812#1 -152806 152941#1 152941#2 152941#4 152941#5 -152704#1 -152704#0 152669#1 152669#2 152669#3 152669#4 152669#5 152669#6 152669#7 152669#8 152669#9 152669#10 152669#11 152607#1 152607#2 152170 152224 152455 152456#1 -152584#4 -152584#3 -152584#2 -152584#1 -152584#0 152578 152220 152347#1 152222 -153482#7 -153482#6 -153482#5 -153482#4 -153482#3 -153482#2 -153482#1 -153482#0 -153374#1 -153374#0 152560#1 152560#2 152560#3 152560#5 152560#6"/>
    </vehicle>
    <vehicle id="special_1-2_234" type="special" depart="18579" departLane="best" arrivalPos="random">
        <route edges="152900#2 -152300 152859 152138#3 152138#4 152138#5 152138#6 152138#7 -152140 152319#4 152310 152313#3 -152306 -152833#2 -152833#1 -152387#0 152813 152818#5 -152812#2 -152812#1 -152806 152941#1 152941#2 152548 -152769#2 -152782 -152708#3 -152708#2 -152708#1 -152708#0 -153001 -152999 -153415#16 -153415#15 -153415#14 153417#0 153417#1 153333#0 153333#1 153333#2 153333#4 153333#5 153333#6 153333#7 153333#8 153333#9 153333#10 153333#11 153331#4 153331#5 153414#5 152252 153387#0 153387#1 152251 153385#0 153385#1 -153383#7 -153383#6 -153383#5 -153383#4 -153383#3 -153383#2 -153383#1 -153383#0 152514#1 152514#2 152514#3 -153373#4 -153373#3"/>
    </vehicle>
    <vehicle id="special_1-3_270" type="special" depart="18582" departLane="best" arrivalPos="random">
        <route edges="-153275#2 -153275#1 -153275#0 152135 152770 152136#0 152136#1 153275#1 153275#2 152962#10 152961#2 152961#3 -152823#2 -152823#1 -152823#0 152138#6 152138#7 -152140 152319#4 152319#1 152319#2 -152309 152282 152532 -152331#7 -152331#6 -152331#5 -152331#4 -152331#3 -152331#2 -152331#1 -152331#0 153639 153636#1 153638#1 153004#0 153004#1 -153460#1 -153460#0"/>
    </vehicle>
    <vehicle id="special_2-1_59" type="special" depart="18597" departLane="best" arrivalPos="random">
        <route edges="-153455#1 -153455#0 153455#0 153455#1 153452 -153478#1 -153478#0 152420 152271 152421#0 152421#1 152309 152319#3 152319#4 152310 152313#3 -152306 -152833#2 -152833#1 -152387#0 152813 152818#5 -152812#2 -152812#1 -152806 152941#1 152941#2 152548 -152769#2 -152782 152703#3 152703#4 152703#5 152705 152707#0 152707#1 152176 152680 152544 152649#0"/>
    </vehicle>
    <vehicle id="special_3-1_120" type="special" depart="18603" departLane="best" arrivalPos="random">
        <route edges="153459 153461#1 153460#1 153007#0 153007#1 152236 153340 153643 152331#0 152406 152331#2 152331#3 152331#4 152331#5 152331#6 152331#7 152167 152169#0 152169#1 152400#1 152400#2 152903#0 152903#1 152321 152404 -152960 152897#1 152897#2 152984#0 152984#1 152984#2 -152985 -152888#1 152968#0 152968#1 152460#1 152460#2 152460#3 -152453"/>
    </vehicle>
    <vehicle id="special_3-1_194" type="special" depart="18630" departLane="best" arrivalPos="random">
        <route edges="-153461#0 -152257 153462 -153462 152257 153461#0 153461#1 153460#1 153007#0 153007#1 152236 153340 153643 152331#0 152406 152331#2 152331#3 152331#4 152331#5 152331#6 152331#7 152167 152169#0 152169#1 152400#1 152400#2 152903#0 152903#1 152990 152816#0 152816#1 152816#2 152816#3 152816#4 152816#5 152816#6 152816#7 152816#8 152816#9 152816#10 152816#11 152761 152231 152787#0 152821 152946#2 152235 152703#0 152703#1 152703#2 152703#3 152703#4 152703#5 152705"/>
    </vehicle>
    <vehicle id="special_1-3_210" type="special" depart="18637" departLane="best" arrivalPos="random">
        <route edges="-153561#0 152889#2 152902#1 152984#4 152975 -152897#1 153478#1 153478#2 153478#3 153478#5 153478#6 153478#7 153478#8 153478#9 153478#10 153478#11 153478#12 153478#13 153478#14 153478#15 153478#16 153478#17 153478#18 153478#19 153478#20 153478#22 153478#23 153478#24 153478#25 153478#26 -152304 -153344 -152303 -153479#1 -153479#0 -152258 -152929"/>
    </vehicle>
    <vehicle id="special_1-1_272" type="special" depart="18656" departLane="best" arrivalPos="random">
        <route edges="-152207 152463 152312 152313#2 152313#3 -152306 -152833#2 -152833#1 -152387#0 152813 152818#5 -152812#2 -152812#1 -152806 152941#1 152941#2 152941#4 152941#5 -152704#1 -152704#0 152669#1 152669#2 152669#3 152669#4 152669#5 152669#6 152669#7 152669#8 152669#9 152669#10 152669#11 152607#1 152607#2 152170 152224 152455 152456#1 -152584#4 -152584#3 -152584#2 -152592#2 -152592#1 -152592#0 -153382#4 -153382#3 -153382#2 153567#0"/>
    </vehicle>
    <vehicle id="special_1-3_286" type="special" depart="18668" departLane="best" arrivalPos="random">
        <route edges="152825#2 152825#3 152794#0 152794#1 -152834#0 -152989#1 -152989#0 -152797#1 152826#0 152826#1 152138#7 -152140 152319#4 152319#1 152319#2 -152309 152282 152532 -152331#7 -152331#6 -152331#5 -152331#4 -152331#3 -152331#2 -152331#1 -152331#0 153639 152407 -153009#6 -153458#6 -153458#5 -153458#4 -153458#3 -153458#2 -153458#1 -153458#0 153453#5 153437#0 153437#1 153437#2 153437#3 152418#1 152415#0 152415#1 152415#2 152415#3 152253 153397 152254 -153438 153438 -152254"/>
    </vehicle>
    <vehicle id="special_1-1_281" type="special" depart="18686" departLane="best" arrivalPos="random">
        <route edges="152793 152798#0 152798#1 153551#2 152827#0 152827#1 -153275#2 -153275#1 -152136#1 -152136#0 152804 152820#1 152820#2 152820#3 152389#0 152389#1 152779 152383 152773 -152771 152948 -152779"/>
    </vehicle>
    <vehicle id="special_1-1_37" type="special" depart="18742" departLane="best" arrivalPos="random">
        <route edges="152793 152798#0 152798#1 153551#2 152827#0 152827#1 152962#10 152961#2 152961#3 -152823#2 -152823#1 -152823#0 152138#6 152138#7 -152140 152319#4 152310 152313#3 152313#0 152272 152425 152207 -152386 -152294 152796 152293 152802 152292 152763 152291 152288 152656#1 152656#2 152536#0 152536#2 152536#4 152536#5 152536#6 152536#7 -152348#1 152462 -152461#0"/>
    </vehicle>
    <vehicle id="special_1-1_199" type="special" depart="18744" departLane="best" arrivalPos="random">
        <route edges="152816#2 152816#3 152816#4 152816#5 152816#6 152816#7 152816#8 152816#9 152816#10 152816#11 152761 152231 152787#0 152787#1 152787#2 152168 152971#0 152971#1 152971#2 152971#3 -152797#1 152810 152961#3 152961#4 -152819#3 -152819#2 -152819#1 -152819#0 -152778 152862 152864 -152891 152887 152886#0 152886#1 152883 152884 152944 152882#1 152882#2 152879 152871 152865"/>
    </vehicle>
    <vehicle id="special_1-3_196" type="special" depart="18760" departLane="best" arrivalPos="random">
        <route edges="152822 152962#1 152962#2 152962#3 152962#4 152306 152313#0 152313#1 152313#2 -152310 152319#1 152319#2 -152309 152282 152532 -152331#7 -152331#6 -152331#5 -152331#4 -152331#3 -152331#2 -152331#1 -152331#0 153639 152407 -153009#6 -153458#6 -153458#5 -153458#4 -153458#3 -153458#2 -153458#1 -153458#0 153453#5 153437#0 153437#1 153437#2 153437#3 152418#1 152415#0 -152752#8 -152752#7 -152752#5 -152752#4 -152752#2"/>
    </vehicle>
    <vehicle id="special_2-1_162" type="special" depart="18769" departLane="best" arrivalPos="random">
        <route edges="153414#3 153414#4 -153331#5 -153331#4 -153333#11 -153333#10 -153333#9 -153333#8 -153333#7 -153333#6 -153333#5 -153333#4 -153333#2 -153333#1 -153333#0 -153417#1 -153417#0 153415#14 153415#15 153415#16 152999 153001 152708#0 152708#1 152708#2 152708#3 -152703#2 -152703#1 -152703#0 152230 152945#0 152795 152787#2 152168 152971#0 152971#1 152971#2 152971#3 152989#0 152989#1 152989#2 -152989#2 -152989#1 -152989#0 -152971#3 -152971#2 -152971#1 -152971#0 152793 152798#0 152798#1"/>
    </vehicle>
    <vehicle id="special_3-1_168" type="special" depart="18769" departLane="best" arrivalPos="random">
        <route edges="-152929 -152305 -153480 153480 152305 152929 152258 153479#0 153479#1 152303 153344 152304 -153478#26 -153478#25 -153478#24 -153478#23 -153478#22 -153478#20 -153478#19 -153478#18 -153478#17 -153478#16 -153478#15 -153478#14 -153478#13 -153478#12 -153478#11 -153478#10 -153478#9 -153478#8 -153478#7 -153478#6 -153478#5 -153478#3 -153478#2 -153478#1 -153478#0 152420 152271 152421#0 152421#1 152309 152319#3 152319#4 152310 152313#3 -152306 -152833#2 152807#1 152807#2 152786#0"/>
    </vehicle>
    <vehicle id="special_1-3_281" type="special" depart="18827" departLane="best" arrivalPos="random">
        <route edges="152536#2 152537#4 152537#6 152656#4 152672#3 152672#4 152283 -152291 -152763 -152292 -152802 -152293 -152796 152294 152386 -152207 152463 152312 152313#2 -152310 152319#1 152319#2 -152309 152282 152532 -152331#7 -152331#6 -152331#5 -152331#4 -152331#3 -152331#2 -152331#1 -152331#0 153639 152407 -153009#6 -153458#6 -153458#5 -153458#4 -153458#3 -153458#2 -153458#1 -153458#0 -153453#4 -153453#3 -153453#2 -153453#1 -153453#0 -153454#1 153459"/>
    </vehicle>
    <vehicle id="special_2-1_79" type="special" depart="18852" departLane="best" arrivalPos="random">
        <route edges="-153561#2 -153561#1 -153561#0 -152889#1 -152889#0 153562 152977#2 152902#0 -152889#2 -153560"/>
    </vehicle>
    <vehicle id="special_1-1_187" type="special" depart="18857" departLane="best" arrivalPos="random">
        <route edges="152816#6 152816#7 152816#8 152816#9 152816#10 152816#11 152761 152231 152787#0 152787#1 152787#2 152168 152971#0 152971#1 152971#2 152971#3 -152797#1 152826#0 152826#1 152138#7 -152140 152319#4 152310 152313#3 -152306 -152833#2 -152833#1 -152387#0"/>
    </vehicle>
    <vehicle id="special_3-1_107" type="special" depart="18866" departLane="best" arrivalPos="random">
        <route edges="152305 152929 152258 153479#0 153479#1 152303 153344 152304 -153478#26 -153478#25 -153478#24 -153478#23 -153478#22 -153478#20 -153478#19 -153478#18 -153478#17 -153478#16 -153478#15 -153478#14 -153478#13 -153478#12 -153478#11 -153478#10 -153478#9 -153478#8 -153478#7 -153478#6 -153478#5 -153478#3 -153478#2 -153478#1 -153478#0 152540#0 152540#1 152138#2 152138#3 152138#4 152138#5 152823#0 152823#1 152823#2 152961#4 -152819#3 -152819#2 -152819#1 -152819#0 -152778 152862 152864 -152891 152887 152886#0 152886#1 152883 152884 152944 152882#1 152882#2 152879 152871 152865"/>
    </vehicle>
    <vehicle id="special_3-1_193" type="special" depart="18903" departLane="best" arrivalPos="random">
        <route edges="-153462 152257 153461#0 153461#1 153460#1 153007#0 153007#1 152236 153340 153643 152331#0 152406 152331#2 152331#3 152331#4 152331#5 152331#6 152331#7 152167 152169#0 152169#1 152400#1 152400#2 152903#0 152903#1 152321 152404 -152960 152897#1 152897#2 152984#0 152984#1 152896#0 152896#1 -152875#0 152985"/>
    </vehicle>