<?xml version="1.0" encoding="UTF-8"?>

<!--
    Monaco SUMO Traffic (MoST) Scenario
    Copyright (C) 2018
    Lara CODECA

    This program is free software: you can redistribute it and/or modify
    it under the terms of the GNU General Public License as published by
    the Free Software Foundation, either version 3 of the License, or
    (at your option) any later version.

    This program is distributed in the hope that it will be useful,
    but WITHOUT ANY WARRANTY; without even the implied warranty of
    MERCHANTABILITY or FITNESS FOR A PARTICULAR PURPOSE.  See the
    GNU General Public License for more details.

    You should have received a copy of the GNU General Public License
    along with this program.  If not, see <http://www.gnu.org/licenses/>.
-->

<routes xmlns:xsi="http://www.w3.org/2001/XMLSchema-instance" xsi:noNamespaceSchemaLocation="http://sumo.dlr.de/xsd/routes_file.xsd"> 
    <vehicle id="commercial_1-GW1_51" type="commercial" depart="18004" departLane="best" arrivalPos="random">
        <route edges="152971#3 -152797#1 152826#0 152826#1 152138#7 152138#0 152139 152970 -152271 -152420 -152960 153478#1 153478#2 153478#3 153478#5 153478#6 153478#7 153478#8 153478#9 153478#10 153478#11 153478#12 153478#13 153478#14 153478#15 153478#16 153478#17 153478#18 153478#19 153478#20 153478#22 153478#23 153478#24 153478#25 153478#26 -152304 -153344 -152303 -153479#1 -153479#0 -152258 -152929 -152305 -153480"/>
    </vehicle>
    <vehicle id="commercial_1-2_122" type="commercial" depart="18029" departLane="best" arrivalPos="random">
        <route edges="152695#1 -152493#5 -152493#3 -152493#2 -152493#1 -152493#0 152703#5 152705 152706 152669#1 152669#2 152669#3 152669#4 152669#5 152669#6 152669#7 152669#8 152669#9 152669#10 152669#11 152607#1 152607#2 152170 152224 152455 152456#1 -152584#4 -152584#3 -152584#2 -152584#1 -152584#0 152578 152220 152347#1 152222 -153482#7 -153482#6 -153482#5 -153482#4 -153482#3 -153482#2 152565#0 152565#1 -152565#1 -152565#0 153482#2"/>
    </vehicle>
    <vehicle id="commercial_3-1_111" type="commercial" depart="18032" departLane="best" arrivalPos="random">
        <route edges="-152929 -152305 -153480 153480 152305 152929 152258 153479#0 153479#1 152303 153344 152304 -153478#26 -153478#25 -153478#24 -153478#23 -153478#22 -153478#20 -153478#19 -153478#18 -153478#17 -153478#16 -153478#15 -153478#14 -153478#13 -153478#12 -153478#11 -153478#10 -153478#9 -153478#8 -153478#7 -153478#6 -153478#5 -153478#3 -153478#2 -153478#1 152897#1 152897#2 152984#0 152984#1 152984#2 -152985 152875#0 152875#1 152875#2 152875#3 152299 -152648 -152399#1 -152399#0"/>
    </vehicle>
    <vehicle id="commercial_1-GW2_72" type="commercial" depart="18032" departLane="best" arrivalPos="random">
        <route edges="-152708#1 -152708#0 -153001 -152999 -153415#16 -153415#15 -153415#14 153417#0 153417#1 153333#0 153333#1 153333#2 153333#4 153333#5 153333#6 153333#7 153333#8 153333#9 153333#10 153333#11 153331#4 153331#5 153414#5 152252 153387#0 153387#1 152251 153385#0 -153388 152177#1 152177#2 152178 153386#0 153386#1 153386#2 152630#1 -153389#2 -153389#1 -153394#1 -153393#1 -153393#0 152738#0 152738#1 152738#2 -152736#0 -153426#0 -153435#0 -153453#6 -153453#5 -153453#4 -153453#3 -153453#2 -153453#1 -153453#0 -153454#1 -153454#0"/>
    </vehicle>
    <vehicle id="commercial_1-GW2_207" type="commercial" depart="18033" departLane="best" arrivalPos="random">
        <route edges="-152608#8 -152608#7 -152608#6 -152608#5 -152608#4 -152608#3 -152608#2 -152608#1 -152608#0 152456#4 152456#1 -152584#4 -152584#3 -152584#2 -152584#1 -152584#0 152578 152220 153367#0 153367#1 153367#3 153367#4 153325#0 153325#1 153325#2 153325#3 153325#4 153361#0 153361#1 153356#0 153356#1 153356#2 153359#2 -152959 -152284 152556"/>
    </vehicle>
    <vehicle id="commercial_GW2-1_154" type="commercial" depart="18052" departLane="best" arrivalPos="random">
        <route edges="153658 152284 -152557 -153359#2 -153356#2 -153356#1 -153356#0 -153361#1 -153361#0 -152560#6 -152560#5 -152560#3 -152560#2 -152560#1 -152560#0 153374#1 153482#0 153482#1 153482#2 153482#3 153482#4 153482#5 153482#6 153482#7 152587#1 152351 152584#0 152584#1 152584#2 152584#3 152584#4 152456#2 152456#3 152456#4 -152455 -152224 -152170 -152607#2 -152607#1 -152607#0 -152669#10 -152669#9 -152669#8 -152669#7 -152669#6 -152669#5 -152669#4 -152670#2 -152670#1 -152670#0 152679#5 152652#0 152674#1 152674#2 -152777#0 152812#0 152812#1 152812#2 152822 152962#1 152962#2 152962#3 -152465#1 -152464"/>
    </vehicle>
    <vehicle id="commercial_1-GW1_276" type="commercial" depart="18058" departLane="best" arrivalPos="random">
        <route edges="-152811 152826#1 152138#7 152138#0 152139 152970 -152271 -152420 -152960 153478#1 153478#2 153478#3 153478#5 153478#6 153478#7 153478#8 153478#9 153478#10 153478#11 153478#12 153478#13 153478#14 153478#15 153478#16 153478#17 153478#18 153478#19 153478#20 153478#22 153478#23 153478#24 153478#25 153478#26 -152304 -153344 -152303 -153479#1 -153479#0 -152258 -152929 -152305 -153480"/>
    </vehicle>
    <vehicle id="commercial_1-2_254" type="commercial" depart="18062" departLane="best" arrivalPos="random">
        <route edges="152783 152548 -152769#2 -152769#1 -152769#0 -152703#0 152230 152945#0 152945#1 -152816#11 -152947#2 -152947#1 -152947#0 153554#1 153554#2 152872#0 152872#1 152872#2 152872#3 152872#4 152872#5 -152901#1 -152901#0 152403#0 152904#0"/>
    </vehicle>
    <vehicle id="commercial_1-1_220" type="commercial" depart="18068" departLane="best" arrivalPos="random">
        <route edges="-152666#1 -152666#0 152364#1 152364#2 152364#3 152364#0 152666#0 152666#1 152666#2 152666#3 152666#4 152666#5 152666#6 152670#2 152716 152175#0 152175#1 -152703#5 -152703#4 -152703#3 -152703#2 -152703#1 -152703#0 152230 152945#0 152795 152787#2 152168 152829#0 152829#1"/>
    </vehicle>
    <vehicle id="commercial_1-2_78" type="commercial" depart="18071" departLane="best" arrivalPos="random">
        <route edges="-152669#1 152659#0 152659#1 152659#2 -152679#5 152670#0 152670#1 152670#2 152669#4 152669#5 152669#6 152669#7 152669#8 152669#9 152669#10 152669#11 152607#1 152607#2 152170 152224 152455 152456#1 -152584#4 -152584#3 -152584#2 -152584#1 -152584#0 152578 152220 152347#1 152222 -153482#7 -153482#6 -153482#5 -153482#4 -153482#3 -153482#2 -153482#1 -153482#0 -153374#1 -153328#4 -153328#3 -153328#2 -153328#1 -153328#0 -153362#0 -153364#0 -153015"/>
    </vehicle>
    <vehicle id="commercial_1-2_262" type="commercial" depart="18074" departLane="best" arrivalPos="random">
        <route edges="152291 152288 152656#1 152656#2 152656#3 152656#4 152672#3 152679#0 152679#1 152679#2 152679#3 152679#4 152679#5 152652#0 152674#1 152674#2 -152382 -152718 -152769#3 -152769#2 -152769#1 -152769#0 -152703#0 152230 152945#0 152945#1 -152816#11 -152816#10 -152816#9 -152816#8 -152814#5 -152814#4 -152814#3 -152814#2 -152814#1 -152814#0"/>
    </vehicle>
    <vehicle id="commercial_GW1-1_403" type="commercial" depart="18087" departLane="best" arrivalPos="random">
        <route edges="152527#0 152527#0-AddedOffRampEdge 152531 152281 152534 152205 152327 152204 152329#0 152329#1 152289 152857 152211 152538 152395 153643 152331#0 152406 152331#2 152331#3 152331#4 152331#5 152331#6 152331#7 152167 152169#0 152169#1 152400#1 152400#2 152903#0 152903#1 152321 152404 -152960 152897#1 152897#2 152984#0 152984#1 152984#2 152984#3 -152902#1 -152902#0 152977#3 152977#4 152885#0 152880 153561#4 -152874"/>
    </vehicle>
    <vehicle id="commercial_1-GW1_206" type="commercial" depart="18089" departLane="best" arrivalPos="random">
        <route edges="152789#1 152422 -153550#0 -152936 -152789#0 152822 152962#1 152962#2 152962#3 152962#4 152962#5 152962#6 152962#7 152962#8 152962#10 152961#2 152961#3 -152823#2 -152823#1 -152823#0 152138#6 152138#7 152138#0 152139 152970 -152271 -152420 -152960 153478#1 153478#2 153478#3 153478#5 153478#6 153478#7 153478#8 153478#9 153478#10 153478#11 153478#12 153478#13 153478#14 153478#15 153478#16 153478#17 153478#18 153478#19 153478#20 153478#22 153478#23 153478#24 153478#25 153478#26 -152304 -153344 -152303 -153479#1 -153479#0 -152258 -152929 -152305 -153480"/>
    </vehicle>
    <vehicle id="commercial_1-3_130" type="commercial" depart="18090" departLane="best" arrivalPos="random">
        <route edges="152777#0 -152382 152667 -152777#2 -152777#0 152812#0 152812#1 152812#2 152822 152962#1 152962#2 152962#3 152962#4 152306 152313#0 152313#1 152313#2 -152310 152319#1 152319#2 -152309 152282 152532 -152331#7 -152331#6 -152331#5 -152331#4 -152331#3 -152331#2 -152331#1 -152331#0 153639 153636#1 153638#1 153004#0 153004#1 -153460#1 -153460#0 -153459"/>
    </vehicle>
    <vehicle id="commercial_GW1-1_301" type="commercial" depart="18097" departLane="best" arrivalPos="random">
        <route edges="153480 152305 152929 152258 153479#0 153479#1 152303 153344 152304 -153478#26 -153478#25 -153478#24 -153478#23 -153478#22 -153478#20 -153478#19 -153478#18 -153478#17 -153478#16 -153478#15 -153478#14 -153478#13 -153478#12 -153478#11 -153478#10 -153478#9 -153478#8 -153478#7 -153478#6 -153478#5 -153478#3 -153478#2 -153478#1 -153478#0 152540#0 152540#1 152138#2 152138#3"/>
    </vehicle>
    <vehicle id="commercial_2-1_12" type="commercial" depart="18101" departLane="best" arrivalPos="random">
        <route edges="152911 -153478#13 -153478#12 -153478#11 -153478#10 153010#0 153010#1 153010#2 153010#3 153010#4 153010#5 153010#6 153010#7 152403#2 152403#3 152901#0 152901#1 152901#2 -152872#4 -152872#3 -152872#2 -152872#1 -152872#0 153554#3 153554#0 152947#0 152947#1 152947#2 152816#11 152761 152231 152787#0 152821 152946#2 152235 152703#0 152703#1 152703#2 -152708#3 -152708#2 -152708#1 -152708#0 -153001 -152999 -153415#16 -153415#15 -153415#14 -153415#13 -153415#12 -153415#11 -153415#10 -153415#9 -153415#8 -153415#7 -153415#6 -153415#5 -153415#4 -153415#3 -153415#1 -153415#0 153401#0 -152998#8 -152998#7"/>
    </vehicle>
    <vehicle id="commercial_2-1_194" type="commercial" depart="18114" departLane="best" arrivalPos="random">
        <route edges="152412 152533 152329#1 152289 152857 152211 152538 152395 153643 152331#0 152406 152331#2 152331#3 152331#4 152331#5 152331#6 152331#7 152167 -153008#3 -153008#2 -153008#1 -153008#0 152901#2 -152872#4 -152834#6 -152834#5 -152834#4 -152834#3 -152834#2 -152834#1 -152834#0 -152989#1 -152989#0 -152971#3 -152971#2 -152971#1 -152971#0 -152168"/>
    </vehicle>
    <vehicle id="commercial_GW2-1_195" type="commercial" depart="18114" departLane="best" arrivalPos="random">
        <route edges="153658 152284 -152557 -153359#2 -153356#2 -153356#1 -153356#0 -153361#1 -153361#0 -152560#6 -152560#5 -152560#3 -152560#2 -152560#1 -152560#0 153374#1 153482#0 153482#1 153482#2 153482#3 153482#4 153482#5 153482#6 153482#7 152587#1 152351 152584#0 152584#1 152584#2 152584#3 152584#4 152456#2 152456#3 152456#4 -152455 -152224 -152170 -152607#2 -152607#1 -152607#0 -152669#10 -152669#9 -152669#8 -152669#7 -152669#6 -152669#5 -152669#4 152716 152175#0 152175#1 -152703#5 -152703#4 -152703#3 -152708#3 -152710#1 -152710#0 152973#1 152973#2 152973#3 152973#4 152973#5"/>
    </vehicle>
    <vehicle id="commercial_1-3_270" type="commercial" depart="18130" departLane="best" arrivalPos="random">
        <route edges="152291 152288 152656#1 152656#2 152656#3 152656#4 152672#3 152672#4 152283 -152291 -152763 -152292 -152802 -152293 -152796 152294 152386 -152207 152463 152312 152313#2 -152310 152319#1 152319#2 152319#3 152140 152138#0 152139 152970 -152271 -152420 -152960 153478#1 153478#2 153478#3 153478#5 153478#6 153478#7 153478#8 153478#9 153478#10 153478#11 153478#12 153478#13 153478#14 153478#15 153478#16 153478#17 153478#18 153478#19 153478#20 153478#22 153478#23 153478#24 153478#25 153478#26 -152304 -153344 -152303 -153479#1 -153479#0 -152258 -152929"/>
    </vehicle>
    <vehicle id="commercial_1-GW1_234" type="commercial" depart="18134" departLane="best" arrivalPos="random">
        <route edges="-152399#0 152460#3 152460#0 -152968#1 -152968#0 152888#1 152985 152984#3 152984#4 152975 -152897#1 153478#1 153478#2 153478#3 153478#5 153478#6 153478#7 153478#8 153478#9 153478#10 153478#11 153478#12 153478#13 153478#14 153478#15 153478#16 153478#17 153478#18 153478#19 153478#20 153478#22 153478#23 153478#24 153478#25 153478#26 -152304 -153344 -152303 -153479#1 -153479#0 -152258 -152929 -152305 -153480"/>
    </vehicle>
    <vehicle id="commercial_1-3_0" type="commercial" depart="18137" departLane="best" arrivalPos="random">
        <route edges="-152838#4 -152838#3 -152838#2 -152838#1 -152838#0 153446#5 152894#1 -152301 152893#0 152893#1 152400#0 -152169#1 -152169#0 -152167 -152331#7 -152331#6 -152331#5 -152331#4 -152331#3 -152331#2 -152331#1 -152331#0 153639 153636#1 153638#1 153004#0 153004#1 -153460#1 -153460#0 -153459"/>
    </vehicle>
    <vehicle id="commercial_1-GW2_31" type="commercial" depart="18149" departLane="best" arrivalPos="random">
        <route edges="-152690#0 152674#1 152674#2 -152777#0 152812#0 152812#1 152812#2 152822 152962#1 152962#2 152962#3 152962#4 152306 152313#0 152313#1 152313#2 -152310 152319#1 152319#2 -152309 152282 152532 -152331#7 -152331#6 -152331#5 -152331#4 -152331#3 -152331#2 -152331#1 -152331#0 153639 153636#1 153638#1 153004#0 153004#1 -153460#1 -153460#0 -153461#0 -152257 153462"/>
    </vehicle>
    <vehicle id="commercial_1-2_85" type="commercial" depart="18152" departLane="best" arrivalPos="random">
        <route edges="152827#0 152827#1 -153275#2 -153275#1 -152136#1 -152136#0 152804 152820#1 152820#2 152820#3 152820#4 152818#0 152818#1 152818#2 152818#3 152818#4 152818#5 -152812#2 -152812#1 -152806 152941#1 152941#2 152548 -152769#2 -152782 -152708#3 -152708#2 -152708#1 -152708#0 -153001 -152999 -153415#16 -153415#15 -153415#14 153417#0 153417#1 153333#0 153333#1 153333#2 -153412#9"/>
    </vehicle>
    <vehicle id="commercial_3-1_172" type="commercial" depart="18160" departLane="best" arrivalPos="random">
        <route edges="-153461#0 -152257 153462 -153462 152257 153461#0 153461#1 153460#1 153007#0 153007#1 152236 153340 153643 152331#0 152406 152331#2 152331#3 152331#4 152331#5 152331#6 152331#7 152167 152169#0 152169#1 152400#1 152400#2 152400#3 -152893#1 -152893#0 152301 -152894#1 -152894#0 152838#0 152838#1 152838#2 152838#3 152838#4 152838#5"/>
    </vehicle>
    <vehicle id="commercial_3-1_213" type="commercial" depart="18185" departLane="best" arrivalPos="random">
        <route edges="-153460#0 -153461#0 -152257 153462 -153462 152257 153461#0 153461#1 153460#1 153007#0 153007#1 152236 153340 153643 152331#0 152406 152331#2 152331#3 152331#4 152331#5 152331#6 152331#7 152167 152169#0 152169#1 152400#1 152400#2 152903#0 152903#1 152990 152816#0 152816#1 152816#2 152816#3 152816#4 152816#5 152816#6 152816#7 152816#8 152816#9 152816#10 152816#11 152761 152231 152787#0 152821 152946#2 152235 152703#0 152703#1 152703#2 -152708#3 -152708#2 -152708#1 -152708#0 -153001 -152999 -153415#16 -153415#15 -153415#14 -153415#13 -153415#12 -153415#11 -153415#10 -153415#9 -153415#8 -153415#7 -153415#6 -153415#5 -153415#4 -153415#3 -153415#1 -153415#0 152651#0 152651#1 152651#2 152651#3 152651#4"/>
    </vehicle>
    <vehicle id="commercial_GW2-1_92" type="commercial" depart="18185" departLane="best" arrivalPos="random">
        <route edges="153454#0 153454#1 153454#2 153453#1 153453#2 153453#3 153453#4 153458#0 153458#1 153458#2 153458#3 153458#4 153458#5 153458#6 153009#6 152408 153638#1 153004#0 152840 153007#1 152236 153340 153643 152331#0 152406 152331#2 152331#3 152331#4 152331#5 152331#6 152331#7 152167 152169#0 152169#1 152400#1 152400#2 152903#0 152903#1 152321 152404 -152960 152897#1 152897#2 152984#0 152984#1 152984#2 -152985 -152888#1 152968#0 152968#1 152460#1 -152397#2"/>
    </vehicle>
    <vehicle id="commercial_GW1-1_36" type="commercial" depart="18189" departLane="best" arrivalPos="random">
        <route edges="153480 152305 152929 152258 153479#0 153479#1 152303 153344 152304 -153478#26 -153478#25 -153478#24 -153478#23 -153478#22 -153478#20 -153478#19 -153478#18 -153478#17 -153478#16 -153478#15 -153478#14 -153478#13 -153478#12 -153478#11 -153478#10 153010#0 153010#1 153010#2 153010#3 153010#4 153010#5 153010#6 153010#7 152403#2 152403#3 152901#0 152901#1 152901#2 -152872#4 -152872#3 -152872#2 -152872#1 -152872#0 153554#3 153554#0 152947#0 152947#1 152947#2 152816#11 152761 152231 152787#0 152821 152946#2 152235 152703#0 152703#1 152703#2 -152708#3 -152708#2 -152708#1 -152708#0 -153001 -152999 -153415#16 -153415#15 -153415#14 -153415#13 -153415#12 -153415#11 -153415#10 -153415#9 -153415#8 -153415#7 -153415#6 -153415#5 -153415#4 -153415#3 -153415#1 -153415#0 153401#0 153401#1 152935#4 152935#0 -153376#14 -153376#13 -153376#12 -153376#11 -153376#10 -153376#9 -153376#8 -152934 153376#7 153376#8 153376#9 153376#10 153376#11"/>
    </vehicle>
    <vehicle id="commercial_2-1_209" type="commercial" depart="18231" departLane="best" arrivalPos="random">
        <route edges="153492#4 153492#5 153389#0 153389#1 153389#2 -152630#1 -152630#0 -153386#1 -153386#0 -152178 -152177#2 -152177#1 -152177#0 -153385#0 -152251 -153387#1 -153387#0 -152252 -153414#5 -153331#5 -153331#4 -153331#3 -153331#2 -153331#1 -153331#0 152935#3 152935#4 152935#0 -153376#14 -153376#13 -153376#12 -153376#11 -153376#10"/>
    </vehicle>
    <vehicle id="commercial_1-1_553" type="commercial" depart="18234" departLane="best" arrivalPos="random">
        <route edges="-152779 152385 152818#0 152818#1 152818#2 152818#3 152818#4 152818#5 -152812#2 -152812#1 -152806 152941#1 152941#2 152548 -152769#2 -152769#1 -152769#0 -152703#0 152230 152945#0 152795 152787#2 152168 152971#0 152971#1 152971#2 152971#3 152989#0 152989#1 152989#2 -152989#2 -152989#1 -152989#0 -152971#3 -152971#2 -152971#1 -152971#0 152793"/>
    </vehicle>
    <vehicle id="commercial_GW1-1_333" type="commercial" depart="18243" departLane="best" arrivalPos="random">
        <route edges="153480 152305 152929 152258 153479#0 153479#1 152303 153344 152304 -153478#26 -153478#25 -153478#24 -153478#23 -153478#22 -153478#20 -153478#19 -153478#18 -153478#17 -153478#16 -153478#15 -153478#14 -153478#13 -153478#12 -153478#11 -153478#10 153010#0 153010#1 153010#2 153010#3 153010#4 153010#5 153010#6 153010#7 152403#2 152403#3 152901#0 152901#1 152901#2 -152872#4 -152872#3 -152872#2 -152872#1 -152872#0 153554#3 153554#0 153554#1 -152784 -152803 -152816#8 -152814#5 -152814#4"/>
    </vehicle>
    <vehicle id="commercial_GW2-1_72" type="commercial" depart="18252" departLane="best" arrivalPos="random">
        <route edges="153658 152284 -152557 -153359#2 -153356#2 -153356#1 -153356#0 -153361#1 -153361#0 -152560#6 -152560#5 -152560#3 -152560#2 -152560#1 -152560#0 153374#1 153482#0 153482#1 153482#2 153482#3 153482#4 153482#5 153482#6 153482#7 152587#1 152351 152584#0 152584#1 152584#2 152584#3 152584#4 152456#2 152456#3 152456#4 -152455 -152224 -152170 -152607#2 -152607#1 -152607#0 -152669#10 -152669#9 -152669#8 -152669#7 -152669#6 -152669#5 -152669#4 152716 152175#0 152175#1 -152703#5 152493#0 152493#1 152493#2 152493#3 152698 152687#3 152699"/>
    </vehicle>
    <vehicle id="commercial_2-1_367" type="commercial" depart="18265" departLane="best" arrivalPos="random">
        <route edges="-152998#7 -152998#6 -152998#5 -152998#4 -152998#3 -152998#2 -152998#0 -153333#4 152691 -152691 153333#4 152998#0 152998#2 152998#3 152998#4 152998#5 152998#6 152998#7 152998#8 -153401#0 152651#0 152651#1 152651#2 152651#3 152651#4 152651#5 153408#0 153408#1 153408#2 152681 152680 152544 152649#0 152649#1 152649#2 153407#0 153407#1 153407#2 153407#3"/>
    </vehicle>
    <vehicle id="commercial_1-GW1_263" type="commercial" depart="18267" departLane="best" arrivalPos="random">
        <route edges="-152607#2 -152607#1 -152607#0 -152669#10 -152669#9 -152669#8 -152669#7 -152669#6 -152669#5 -152669#4 152716 152175#0 152175#1 -152703#5 -152703#4 -152703#3 -152703#2 -152703#1 -152703#0 152230 152945#0 152795 152787#2 152168 152971#0 152971#1 152971#2 152971#3 -152797#1 152826#0 152826#1 152138#7 152138#0 152139 152970 -152271 -152420 -152960 153478#1 153478#2 153478#3 153478#5 153478#6 153478#7 153478#8 153478#9 153478#10 153478#11 153478#12 153478#13 153478#14 153478#15 153478#16 153478#17 153478#18 153478#19 153478#20 153478#22 153478#23 153478#24 153478#25 153478#26 -152304 -153344 -152303 -153479#1 -153479#0 -152258 -152929 -152305 -153480"/>
    </vehicle>
    <vehicle id="commercial_2-1_294" type="commercial" depart="18300" departLane="best" arrivalPos="random">
        <route edges="153556#3 153001 152708#0 152708#1 152708#2 152708#3 -152703#2 -152703#1 -152703#0 152230 152945#0 152795 152787#2 152168 152971#0 152971#1 152971#2 152971#3 -152797#1 152826#0 152826#1 152138#7 152138#0 152138#1 152138#2 -152859 152300 -152900#2 -152900#1 -152900#0 153562 152977#2 152977#3 152888#0 152968#0 152968#1 152460#1 152460#2 152399#0 152399#1 152399#2 152399#3 152860 -152399#4 -152399#3"/>
    </vehicle>
    <vehicle id="commercial_1-GW1_282" type="commercial" depart="18315" departLane="best" arrivalPos="random">
        <route edges="152871 152865 152870 152937 152808 -152805 -152801 -152762 -152765 152778 152819#0 152819#1 152819#2 152819#3 152961#5 152961#1 152961#2 152961#3 -152823#2 -152823#1 -152823#0 152138#6 152138#7 -152140 152319#4 152319#1 152319#2 -152309 152282 152532 -152331#7 -152331#6 -152331#5 -152331#4 -152331#3 -152331#2 -152331#1 -152331#0 153639 153636#1 153638#1 152966 -152538 -152211 -152857 -152289 152326#0 152326#1 152203 152328 152206 152330 152324#1"/>
    </vehicle>
    <vehicle id="commercial_1-1_491" type="commercial" depart="18316" departLane="best" arrivalPos="random">
        <route edges="152608#8 152608#9 -152515#0 152515#0 -152608#9 -152608#8 -152608#7 -152608#6 -152608#5 -152608#4 -152608#3 -152608#2 -152608#1 -152608#0 152456#4 152456#1 -152584#4 -152584#3 -152584#2 -152584#1 -152350 152584#2 152584#3 152584#4"/>
    </vehicle>
    <vehicle id="commercial_1-3_174" type="commercial" depart="18326" departLane="best" arrivalPos="random">
        <route edges="152291 152288 152656#1 152656#2 152656#3 152656#4 152672#3 152672#4 152283 -152291 -152763 -152292 -152802 -152293 -152796 152294 152386 -152207 152463 152312 152313#2 -152310 152319#1 152319#2 -152309 152282 152532 -152331#7 -152331#6 -152331#5 -152331#4 -152331#3 -152331#2 -152331#1 -152331#0 153639 153636#1 153638#1 153004#0 153004#1 -153460#1 -153460#0 -153461#0 -152257 153462 -153462 152257 153461#0 153461#1"/>
    </vehicle>
    <vehicle id="commercial_GW2-1_268" type="commercial" depart="18343" departLane="best" arrivalPos="random">
        <route edges="153454#0 153454#1 153454#2 153453#1 153453#2 153453#3 153453#4 153453#5 153453#6 153453#7 153435#1 152736#0 -152738#2 -152738#1 -152738#0 153393#0 153393#1 -153394#0 153329#0 153329#1 153329#2 153329#3 153329#4 153329#5 153329#6 153329#7 153329#8 153329#9 153329#11 153329#12 -153337#7 -153337#6 -153337#5 -153337#4 -153337#3 -153337#2 -153337#1 -153337#0 -153446#0 -153443#3 -153443#2 -153443#1 -153443#0 -153447#1 -153447#0 -153406#8 -153406#7 -153406#6 -153406#5 -153406#4 -153406#3 -153406#2 -153406#1"/>
    </vehicle>
    <vehicle id="commercial_2-1_282" type="commercial" depart="18365" departLane="best" arrivalPos="36.052565714040355">
        <route edges="-153474#0 -153475#3 -153475#2 -153475#1 -153475#0 152922#2 153012#0 153012#1 153478#23 153478#24 153478#25 153481#0 153481#1 153481#2 153481#3 153481#5 153481#6 153481#7 153481#8 153481#9 153481#11 152331#3 152331#4 152331#5 152331#6 152331#7 152167 -153008#3 -153008#2 -153008#1 -153008#0 -152901#1 -152901#0"/>
        <stop parkingArea="1139" until="43418"/>
    </vehicle>
    <vehicle id="commercial_1-2_175" type="commercial" depart="18365" departLane="best" arrivalPos="random">
        <route edges="152291 152288 152656#1 152656#2 152656#3 152656#4 152672#3 152679#0 152679#1 152679#2 152679#3 152679#4 152679#5 152652#0 152674#1 152674#2 -152382 -152718 -152769#3 -152769#2 -152782 -152708#3 -152708#2 -152708#1 -152708#0 -153001 -152999 -153415#16 -153415#15 -153415#14 153417#0 153417#1 153417#2 153417#3 152693 -152693 -153417#3"/>
    </vehicle>
    <vehicle id="commercial_1-2_89" type="commercial" depart="18372" departLane="best" arrivalPos="random">
        <route edges="153398#2 153398#3 153398#4 153013#0 153013#1 152651#1 152651#2 152651#3 152651#4 152651#5 153408#0 153408#1 153408#2 152942 152686 152175#1 -152703#5 -152703#4 -152703#3 -152708#3 -152708#2 152709#0 152709#1 153406#1 153406#2 153406#3 153406#4 153406#5 153406#6 153406#7 153406#8 153005#0 153005#1 153336 153439"/>
    </vehicle>
    <vehicle id="commercial_1-2_185" type="commercial" depart="18382" departLane="best" arrivalPos="random">
        <route edges="152669#1 152669#2 152669#3 -152670#2 -152670#1 -152670#0 152679#5 152652#0 152674#1 152674#2 -152777#0 152812#0 152812#1 152812#2 152822 152962#1 152962#2 152962#3 152962#4 152306 152313#0 152313#1 152313#2 -152310 152319#1 152319#2 -152309 152282 152532 -152331#7 -152331#6 -152331#5 -152331#4 -152331#3 -152331#2 -152331#1 -152331#0 153639 153636#1 153638#1 153004#0 153004#1 -153460#1 -153460#0 -153459"/>
    </vehicle>
    <vehicle id="commercial_1-GW2_78" type="commercial" depart="18383" departLane="best" arrivalPos="random">
        <route edges="152782 152769#2 152769#3 152941#5 -152704#1 -152704#0 152669#1 152669#2 152669#3 152669#4 152669#5 152669#6 152669#7 152669#8 152669#9 152669#10 152669#11 152607#1 152607#2 152170 152224 152455 152456#1 -152584#4 -152584#3 -152584#2 -152584#1 -152584#0 152578 152220 153367#0 153367#1 153367#3 153367#4 153325#0 153325#1 153325#2 153325#3 153325#4 153361#0 153361#1 153356#0 153356#1 153356#2 153359#2 -152959 -152284 152556"/>
    </vehicle>
    <vehicle id="commercial_2-1_241" type="commercial" depart="18396" departLane="best" arrivalPos="random">
        <route edges="-153386#1 -153386#0 -152178 -152177#2 -152177#1 -152177#0 -153385#0 -152251 -153387#1 -153387#0 -152252 -153414#5 -153331#5 -153331#4 -153333#11 -153333#10 -153333#9 -153333#8 -153333#7 -153333#6 -153333#5 -153333#4 -153333#2 -153333#1 -153333#0 -153417#1 -153417#0 153415#14 153415#15 153415#16 152999 153001 152708#0 152708#1 152708#2 152708#3 152703#3 152703#4 152703#5 152705 152706 152669#1 152669#2 152669#3 152663"/>
    </vehicle>
    <vehicle id="commercial_1-3_318" type="commercial" depart="18396" departLane="best" arrivalPos="random">
        <route edges="152769#0 152769#1 -152782 -152703#2 -152703#1 -152703#0 152230 152945#0 152945#1 -152816#11 -152816#10 -152816#9 -152816#8 -152816#7 -152816#6 -152816#5 -152816#4 -152816#3 -152816#2 -152816#1 -152816#0 152991 -152903#1 -152903#0 152400#3 152400#0 -152169#1 -152169#0 -152167 -152331#7 -152331#6 -152331#5 -152331#4 -152331#3 -152331#2 -152331#1 -152331#0 153639 152407 -153009#6 -153458#6 -153458#5 -153458#4 -153458#3 -153458#2 -153458#1 -153458#0 153453#5 153437#0 153437#1 153437#2 153437#3 152418#1 152415#0 152415#1 152415#2 152415#3"/>
    </vehicle>
    <vehicle id="commercial_1-1_417" type="commercial" depart="18397" departLane="best" arrivalPos="random">
        <route edges="152536#7 -152166#1 -152166#0 153549 152146 -152173 152580#1 -152219 153380#0 153380#1 153380#2 153378 152222 152587#1 152351 152584#0 152584#1 -152592#2 -152592#1 -152591 -152285 152596 -152943#3 -152943#2 -152943#1 -152943#0 152939#0 152939#1 152939#2 152939#3 152939#4 -152608#6 -152608#5 -152608#4"/>
    </vehicle>
    <vehicle id="commercial_1-1_107" type="commercial" depart="18402" departLane="best" arrivalPos="random">
        <route edges="152939#4 -152608#6 -152608#5 -152608#4 -152608#3 -152608#2 -152619 -152612 -152607#2 -152607#1 -152607#0 -152669#10 -152669#9 -152669#8 -152669#7 -152669#6 -152669#5 -152669#4 152716 152175#0 152175#1 -152703#5 -152703#4 -152703#3 -152708#3 -152708#2 152717 152713#0 152714"/>
    </vehicle>
    <vehicle id="commercial_1-1_189" type="commercial" depart="18411" departLane="best" arrivalPos="random">
        <route edges="-152168 152946#1 152946#2 152235 152703#0 152703#1 152703#2 152703#3 152703#4 152703#5 152705 152706 152659#0 152659#1 152659#2 -152679#5 -152679#4 -152679#3 -152679#2 -152679#1 -152679#0 152656#0 152656#1 152656#2 152656#3 152657 152671#0 152671#1"/>
    </vehicle>
    <vehicle id="commercial_1-1_571" type="commercial" depart="18416" departLane="best" arrivalPos="random">
        <route edges="-152135 153275#0 153275#1 153275#2 152962#10 152961#2 152961#3 -152823#2 -152823#1 -152823#0 152138#6 152138#7 -152140 152319#4 152319#1 152319#2 -152309 152282 152532 -152331#7 -152331#6 152409 -152409 152331#6 152331#7 152167 -153008#3 -153008#2 -153008#1 -153008#0"/>
    </vehicle>
    <vehicle id="commercial_1-GW1_340" type="commercial" depart="18435" departLane="best" arrivalPos="random">
        <route edges="-152678#0 152679#4 152679#5 152652#0 152674#1 152674#2 -152777#0 152812#0 152812#1 152812#2 152822 152962#1 152962#2 152962#3 152962#4 152962#5 152962#6 152962#7 152962#8 152962#10 152961#2 152961#3 -152823#2 -152823#1 -152823#0 152138#6 152138#7 152138#0 152139 152970 -152271 -152420 -152960 153478#1 153478#2 153478#3 153478#5 153478#6 153478#7 153478#8 153478#9 153478#10 153478#11 153478#12 153478#13 153478#14 153478#15 153478#16 153478#17 153478#18 153478#19 153478#20 153478#22 153478#23 153478#24 153478#25 153478#26 -152304 -153344 -152303 -153479#1 -153479#0 -152258 -152929 -152305 -153480"/>
    </vehicle>
    <vehicle id="commercial_1-2_247" type="commercial" depart="18469" departLane="best" arrivalPos="random">