<?xml version="1.0" encoding="UTF-8"?>

    <!--
        Monaco SUMO Traffic (MoST) Scenario
        Copyright (C) 2018
        Lara CODECA

        This program is free software: you can redistribute it and/or modify
        it under the terms of the GNU General Public License as published by
        the Free Software Foundation, either version 3 of the License, or
        (at your option) any later version.

        This program is distributed in the hope that it will be useful,
        but WITHOUT ANY WARRANTY; without even the implied warranty of
        MERCHANTABILITY or FITNESS FOR A PARTICULAR PURPOSE.  See the
        GNU General Public License for more details.

        You should have received a copy of the GNU General Public License
        along with this program.  If not, see <http://www.gnu.org/licenses/>.
    -->

    <routes xmlns:xsi="http://www.w3.org/2001/XMLSchema-instance" xsi:noNamespaceSchemaLocation="http://sumo.dlr.de/xsd/routes_file.xsd"> 
        <vehicle id="other_GW1_313" type="other" depart="18015" departLane="best" arrivalPos="12.997115064505993">
            <route edges="14552 13374 13999 13327 14551#0 14551#1 13372 14416 13373 -14550#26 -14550#25 -14550#24 -14550#23 -14084#1 13994 -13991#0 -14550#20 -14550#19 -14550#18 -14550#17 -14550#16 -14550#15 -14550#14 -14550#13 -14550#12 -14550#11 -14550#10 -14550#9 -14550#8 -14550#7 -14550#6 -14550#5 -14550#3 -14550#2 -14550#1 -14550#0 13490 13340 13491#0 13491#1 13379 13389#3 13191 13189#0 13189#1 13189#2 13189#3 13189#4 13189#5 13893#0 13893#1 13893#2 14033#4 14033#5 13851 13890#0"/>
            <stop parkingArea="1117" until="43576"/>
        </vehicle>
        <vehicle id="other_3_97" type="other" depart="18027" departLane="best" arrivalPos="random">
            <route edges="14469 13323 -14510 14510 -13323 -14469 -13322 -13485#3 -13485#2 -13485#1 -13485#0 13484 13516#1 -14509#3 -14509#2 -14509#1 -14509#0 -14525#5 14530#0 14530#1 14530#2 14530#3 14530#4 14530#5 14530#6 14081#6 13478 14712#1 14038 13465 14717 13401#0 13401#1 13401#2 13401#3 13401#4 13401#5 13401#6 13401#7 13218 -14080#3 -14080#2 -14080#1 -14080#0 -13971#1 -13971#0 13473#0 13473#1 13473#2 14011#0 14011#1 14011#2 13491#1 13379 13389#3 13191 13189#0 13189#1 13189#2 13189#3 13189#4 13189#5 13893#0 13893#1 13893#2 14033#4 -13889#3 -13889#2 -13889#1 -13889#0 -13848 13932 13934 -13961 13957 13956#0 13956#1 13953 13954 14016 13952#1 13952#2 13949 13941 13935"/>
        </vehicle>
        <vehicle id="other_3_65" type="other" depart="18036" departLane="best" arrivalPos="random">
            <route edges="-14531 14526#1 14526#2 14525#1 14525#2 14525#3 14525#4 14530#0 14530#1 14530#2 14530#3 14530#4 14530#5 14530#6 14081#6 13478 14712#1 14038 13465 14717 13401#0 13401#1 13401#2 13401#3 13401#4 13401#5 13401#6 13401#7 13218 13220#0 13220#1 13470#1 13470#2 13973#0 13973#1 13391 13474 13184 13493 13967#2 14056#0 14056#1 14056#2 14056#3 -13972#1 -13972#0 14049#3 14049#4 13955#0 13950"/>
        </vehicle>
        <vehicle id="other_2_259" type="other" depart="18037" departLane="best" arrivalPos="random">
            <route edges="14475 13719#2 14479#0 14479#1 14479#2 14479#3 14480#0 14480#1 14480#2 14014 13756 13786#2 -13773#5 -13773#4 -13773#3 -13778#3 -13778#2 -13778#1 -13778#0 -14073 -14629#3 -14629#2 -14629#1 -14629#0 14478#1 14478#2 14478#3 14478#4 14478#5 14478#6 14478#7 14478#8 14519#0 14519#1 14515#0 14517 13884#1 13884#2"/>
        </vehicle>
        <vehicle id="other_1_185" type="other" depart="18061" departLane="best" arrivalPos="random">
            <route edges="-13662#1 -13661 -13354 13666 -14015#3 -14015#2 -14015#1 -14015#0 14010#0 14010#1 14010#2 14010#3 14010#4 13678#7 13678#8 13678#9 13585#1 13424#4 13424#1 -13720#6 -13720#5 -13720#4 -13720#3 -13720#2 -13720#1 14474 14475 13719#2 14479#0 14479#1 14479#2 14479#3 14480#0 14480#1 14480#2 14014 13756 13786#2 -13773#5 -13773#4 -13773#3 -13773#2 -13773#1 -13773#0 13299 14017#0 14017#1 -13886#11 -14019#2 -14019#1 -14019#0 14627#1 14627#2 13942#0 13942#1 13942#2 13942#3 -13904#6 -13904#5 -13904#4 -13904#3 -13904#2"/>
        </vehicle>
        <vehicle id="other_GW1_114" type="other" depart="18070" departLane="best" arrivalPos="random">
            <route edges="14552 13374 13999 13327 14551#0 14551#1 13372 14416 13373 -14550#26 -14550#25 -14550#24 -14550#23 -14084#1 13994 -13991#0 -14550#20 -14550#19 -14550#18 -14550#17 -14550#16 -14550#15 -14550#14 -14550#13 -14550#12 -14550#11 -14550#10 -14550#9 -14550#8 -14550#7 -14550#6 -14550#5 -14550#3 -14550#2 -14550#1 -14550#0 13490 13340 13491#0 13491#1 13379 13389#3 13389#4 13380 13383#3 13383#0 13341 13495 13276 -13456 -13363 13866 13362 13872 13361 13833 13360 13356 13741#0 13741#1 13434#2 -13679 -13674 13221 13293 13525 13526#1 -13654#4 -13654#3 -13654#2 -13654#1 -13654#0 13648 13289 13417#1 13291 13286"/>
        </vehicle>
        <vehicle id="other_GW1_416" type="other" depart="18094" departLane="best" arrivalPos="random">
            <route edges="13597#0 13597#0-AddedOffRampEdge 13601 13350 13604 13274 13397 13273 13399#0 13399#1 13358 13927 13280 13608 13465 14717 13401#0 13401#1 13401#2 13401#3 13401#4 13401#5 13401#6 13401#7 13218 -14080#3 -14080#2 -14080#1 -14080#0 -13971#1 -13971#0 13473#0 13473#1 13473#2 14011#0 14011#1 14011#2 13491#1 13379 13389#3 13191 13189#0 13189#1 13189#2 13189#3 13189#4 13189#5 13893#0 13893#1 13893#2 14033#4 14033#5 13851 13890#0 13890#1 13890#2 13890#3 13890#4 13460 13861#0 13861#1 13900 -13869#0 13869#0"/>
        </vehicle>
        <vehicle id="other_2_276" type="other" depart="18099" departLane="best" arrivalPos="random">
            <route edges="-14421#2 -14421#1 -14421#0 -13313 -14426 13312 14424 14425 13311 -14436#1 14434#0 14434#1 14400#1 14400#2 14400#3 14400#4 14446#1 14554#0 14554#1 14554#2 14554#3 14554#4 14554#5 14554#6 14554#7 13657#1 13421 13654#0 13654#1 13654#2 13654#3 13654#4 13526#2 13526#3 13526#4 -13525 -13293 -13221 13674 13679 13434#3 13434#0 13434#1 -13741#1 -13741#0 -13296 -13360 -13833 -13361 -13872 -13362 -13866 13363 13456 -13276 13533 13382 13383#2 13383#3 -13375 14034#5 14034#6 14034#7 14034#8 -14347#2 -14347#1 -13187#1 -13187#0 -13840 -13186 14347#0"/>
        </vehicle>
        <vehicle id="other_GW2_56" type="other" depart="18100" departLane="best" arrivalPos="random">
            <route edges="14732 13353 -13627 -14431#2 -14428#2 -14428#1 -14428#0 -14433#1 -14433#0 14006#3 14006#0 -13630#6 -13630#5 -13630#4 -13630#3 -13630#2 -13630#1 -13630#0 14446#1 14554#0 14554#1 14554#2 14554#3 14554#4 14554#5 14554#6 14554#7 13657#1 13421 13654#0 13654#1 13654#2 13654#3 13654#4 13526#2 13526#3 13526#4 -13525 -13293 -13221 13674 13679 13434#3 13434#0 13434#1 -13741#1 -13741#0 -13296 -13360 -13833 -13361 -13872 -13362 -13866 13363 13456 -13276 13533 13382 13383#2 13383#3 -13375 14034#5 14034#6 14034#7 14034#8 14034#10 14033#2 14033#3 14033#4 -13889#3 -13889#2 -13889#1 -13889#0 -13848 13932 13934 -13961 13938 13577 14009 13214 -13956#0 -13957"/>
        </vehicle>
        <vehicle id="other_GW1_627" type="other" depart="18102" departLane="best" arrivalPos="random">
            <route edges="13342 13589 13278 13588#0 13598 13631 13584#3 13584#4 14455#0 14455#1 14455#2 14455#3 14455#4 14455#5 14455#6 14455#7 14457#2 14457#3 14457#4 -13316 14443#0 14443#1 13315 13637 13377 -14446#4 -14446#3 -14446#2 14554#0 14554#1 14554#2 14554#3 14554#4 14554#5 14554#6 14554#7 13657#1 13421 13654#0 13654#1 13654#2 13654#3 13654#4 13526#2 13687#0 13687#1 13687#2 -13390 -14039#1 13527 13528#0"/>
        </vehicle>
        <vehicle id="other_1_243" type="other" depart="18115" departLane="best" arrivalPos="random">
            <route edges="13749#5 13722#0 13744#1 13744#2 -13847#0 13882#0 13882#1"/>
        </vehicle>
        <vehicle id="other_1_49" type="other" depart="18147" departLane="best" arrivalPos="random">
            <route edges="13495 13276 -13456 -13363 13866 13362 13872 13361 13833 13360 13357 13726#1 13726#2 13726#3 13726#4 13742#3 13749#0 13749#1 13749#2 13749#3 13749#4 13749#5 13722#0 13744#1 13744#2 13847#2 -13737 -13788 -13839#3 -13839#2 -13839#1 -13839#0 -13773#0 13299 14017#0 13865 13857#2 13219 14043#0 14043#1 14043#2 14043#3 14043#4 14061#0 14061#1 13904#0 13904#1 13904#2 13904#3 13904#4 13904#5 13904#6 -13942#3"/>
        </vehicle>
        <vehicle id="other_3_230" type="other" depart="18166" departLane="best" arrivalPos="random">
            <route edges="14531 14533#1 14532#1 14079#0 14079#1 13305 14412 14717 13401#0 13401#1 13401#2 13401#3 13401#4 13401#5 13401#6 13401#7 13218 13220#0 13220#1 13470#1 13470#2 13470#3 -13963#1 -13963#0 13370 -13964#1 -13964#0 13908#0 13908#1 13908#2 13908#3 13908#4 -13902#2 -13902#1 -13902#0 -14515#1 -14515#0 -14519#1 -14519#0 14077#1 14078 -14045#5 14513#0 14513#1 14513#2"/>
        </vehicle>
        <vehicle id="other_2_40" type="other" depart="18184" departLane="best" arrivalPos="random">
            <route edges="14512 13886#9 13886#10 13886#11 13831 13300 13857#0 13857#1 13857#2 13219 14043#0 14624#0 14624#1 14624#2 14624#3 13897#0 13897#1 14034#10 14033#2 14033#3 14033#4 -13889#3 -13889#2 -13889#1 -13889#0 -13848 13835 -13844 -13845 13846 13871 13875 -13878 -13860 -13940 -13935 -13941 -13949 -13952#2 -13952#1 -13952#0"/>
        </vehicle>
        <vehicle id="other_GW1_35" type="other" depart="18184" departLane="best" arrivalPos="random">
            <route edges="13597#0 13597#0-AddedOffRampEdge 13601 13350 13604 13274 13397 13273 13399#0 13399#1 13358 13927 13280 13608 13465 14717 13401#0 13401#1 13401#2 13401#3 13401#4 13401#5 13401#6 13401#7 13218 -14080#3 -14080#2 -14080#1 -14080#0 -13971#1 -13971#0 13473#0 13473#1 13473#2 14011#0 14011#1 14011#2 13491#1 13379 13389#3 13191 13189#0 13189#1 13189#2 13189#3 13189#4 13189#5 13893#0 13893#1 13893#2 14033#4 -13889#3 -13889#2 -13889#1 -13889#0 -13848 13932 13934 -13961 13938 13936"/>
        </vehicle>
        <vehicle id="other_2_199" type="other" depart="18239" departLane="best" arrivalPos="random">
            <route edges="13739#11 13677#1 13677#2 13674 13679 13434#3 13434#0 13434#1 -13741#1 -13741#0 -13296 -13360 -13833 -13361 -13872 -13362 -13866 13363 13456 -13276 13533 13382 13383#2 13383#3 -13375 14034#5 14034#6 14034#7 14034#8 14034#10 14033#2 14033#3 14033#4 14033#5 13851 13890#0 13890#1"/>
        </vehicle>
        <vehicle id="other_1_277" type="other" depart="18265" departLane="best" arrivalPos="random">
            <route edges="13677#2 13221 13293 13525 13526#1 13526#2 13526#3 13526#4 -13525 -13293 -13221 -13677#2 -13677#1 -13677#0 -13739#10 -13739#9 -13739#8 -13739#7 -13739#6 -13739#5 -13739#4 13786#0 13786#1 13786#2 -13773#5 -13773#4 -13773#3 -13773#2 -13773#1 -13773#0 13299 14017#0 14017#1 13831 13300 13857#0 13891 14018#2 13304"/>
        </vehicle>
        <vehicle id="other_GW2_375" type="other" depart="18265" departLane="best" arrivalPos="random">
            <route edges="14732 13353 -13627 -14431#2 -14428#2 -14428#1 -14428#0 -14433#1 -14433#0 14006#3 14006#0 -13630#6 -13630#5 -13630#4 -13630#3 -13630#2 -13630#1 -13630#0 14446#1 14554#0 14554#1 14554#2 14554#3 14554#4 14554#5 14554#6 14554#7 13657#1 13421 13654#0 13654#1 13654#2 13654#3 13654#4 13526#2 13526#3 13526#4 -13525 -13293 -13221 13674 13679 13434#3 13434#0 13434#1 -13741#1 -13741#0 -13296 -13360 -13833 -13361 -13872 -13362 -13866 13363 13456 -13276 13533 13382 13383#2 13383#3 -13375 14034#5 14034#6 14034#7 14034#8 14034#10 14033#2 14033#3 14033#4 14033#5 13851 13890#0 13890#1 13890#2 13890#3 13459#0 13459#1"/>
        </vehicle>
        <vehicle id="other_3_468" type="other" depart="18323" departLane="best" arrivalPos="random">
            <route edges="13485#3 13322 14469 13323 -14510 14510 -13323 -14469 -13322 -13485#3 -13485#2 -13485#1 -13485#0 13484 13516#1 -14509#3 -14509#2 -14509#1 -14509#0 14525#6 14525#7 14507#1 13806#0 -13808#2 -13808#1 -13808#0 14465#0 14465#1 14637#0 14401#0 14401#1 14401#2 14401#3 14401#4 14401#5 14401#6 14401#7 14401#8 14401#9 14401#11 14401#12 -14409#7 -14409#6 -14409#5 -14409#4 -14409#3 -14409#2 -14409#1 -14409#0 -14518#0 -14515#3 -14515#2 -14515#1 14517 13884#1 13884#2 13884#3 13884#4 13884#5 13886#8 13886#9 13886#10 13886#11 13831 13300 13857#0 13857#1 13857#2 13219 13863"/>
        </vehicle>
        <vehicle id="other_GW2_361" type="other" depart="18333" departLane="best" arrivalPos="random">
            <route edges="14732 13353 -13627 -14431#2 -14428#2 -14428#1 -14428#0 -14433#1 -14433#0 14006#3 14006#0 -13630#6 -13630#5 -13630#4 -13630#3 -13630#2 -13630#1 -13630#0 14446#1 14554#0 14554#1 14554#2 14554#3 14554#4 14554#5 14554#6 14554#7 13657#1 13421 13654#0 13654#1 13654#2 13654#3 13654#4 13526#2 13526#3 13526#4 -13525 -13293 -13221 13674 13679 13434#3 13434#0 13434#1 -13741#1 -13741#0"/>
        </vehicle>
        <vehicle id="other_2_269" type="other" depart="18343" departLane="best" arrivalPos="random">
            <route edges="14514#3 14514#4 14514#5 14514#6 -13325#1 -13325#0 -14497#4 -14497#3 14484#0 14484#1 14484#2 14484#3 14484#4 14484#5 14484#6 14484#7 14484#8 14484#9 -14405#2 -14405#1 -14405#0 -14489#1 -14489#0 14487#14 14487#15 14487#16 14071 14073 13778#0 13778#1 13778#2 13778#3 13773#3 13773#4 13773#5 13775 13776 13739#1 13739#2 13739#3 13739#4 13739#5 13739#6 13739#7 13739#8 13739#9 13739#10 13739#11 13677#1 13677#2 13221 13293 13525 13526#1 -13654#4 -13654#3 -13654#2 -13662#2 -13662#1"/>
        </vehicle>
        <vehicle id="other_GW1_252" type="other" depart="18353" departLane="best" arrivalPos="random">
            <route edges="13597#0 13597#0-AddedOffRampEdge 13601 13350 13604 13274 13397 13273 13399#0 13399#1 13358 13927 13280 13608 13465 14717 13401#0 13401#1 13401#2 13401#3 13401#4 13401#5 13401#6 13401#7 13218 13220#0 13220#1 13470#1 13470#2 13973#0 13973#1 14062 13886#0 13886#1 13886#2 13886#3 13886#4 13886#5 13886#6 13886#7 13886#8 13886#9 13886#10 13886#11 13831 13300 13857#0 13891 14018#2 13304 13773#0 13773#1 13773#2 13773#3"/>
        </vehicle>
        <vehicle id="other_GW2_122" type="other" depart="18353" departLane="best" arrivalPos="random">
            <route edges="-14534 13326 14533#0 14533#1 14532#1 14079#0 14079#1 13305 14412 14717 13401#0 13401#1 13401#2 13401#3 13401#4 13401#5 13401#6 13401#7 13218 -14080#3 -14080#2 -14080#1 -14080#0 -13971#1 -13971#0 13473#0 13473#1 13473#2 14011#0 14011#1 14011#2 13491#1 13379 13389#3 13389#4 13380 13383#3 -13375 -13903#2 13877#1 13855#0 13855#1"/>
        </vehicle>
        <vehicle id="other_GW2_411" type="other" depart="18364" departLane="best" arrivalPos="random">
            <route edges="14732 13353 -13627 -14431#2 -14428#2 -14428#1 -14428#0 -14433#1 -14433#0 14006#3 14006#0 -13630#6 -13630#5 -13630#4 -13630#3 -13630#2 -13630#1 -13630#0 14446#1 14554#0 14554#1 14554#2 14554#3 14554#4 14554#5 14554#6 14554#7 13657#1 13421 13654#0 13654#1 13654#2 13654#3 13654#4 13526#2 13526#3 13526#4 -13525 -13293 -13221 -13677#2 -13677#1 -13677#0 -13739#10 -13739#9 -13739#8 -13739#7 -13739#6 -13739#5 -13739#4 13786#0 13786#1 13786#2 -13773#5 -13773#4 -13773#3 -13778#3 -13778#2 -13778#1 -13778#0 14072 13781#1 13765#0 13765#1"/>
        </vehicle>
        <vehicle id="other_GW2_21" type="other" depart="18366" departLane="best" arrivalPos="random">
            <route edges="14732 13353 -13627 -14431#2 -14428#2 -14428#1 -14428#0 -14433#1 -14433#0 14006#3 14006#0 -13630#6 -13630#5 -13630#4 -13630#3 -13630#2 -13630#1 -13630#0 14446#1 14554#0 14554#1 14554#2 14554#3 14554#4 14554#5 14554#6 14554#7 13657#1 13421 13654#0 13654#1 13654#2 13654#3 13654#4 13526#2 13526#3 13526#4 -13525 -13293 -13221 -13677#2 -13677#1 -13677#0 -13739#10 -13739#9 -13739#8 -13739#7 -13739#6 -13739#5 -13739#4 13786#0 13786#1 13786#2 -13773#5 -13773#4 -13773#3 -13778#3 -13778#2 -13778#1 -13778#0 -14073 -14629#3 -14629#2 -14629#1 -14629#0 14478#1 14478#2 14478#3 14478#4 14478#5 14478#6 14478#7 14478#8 14077#1 14078 -14045#5 -14045#4"/>
        </vehicle>
        <vehicle id="other_2_316" type="other" depart="18367" departLane="best" arrivalPos="random">
            <route edges="-14066 -14566 -14431#2 -14428#2 -14428#1 -14428#0 -14433#1 -14433#0 14006#3 14006#0 -13630#6 -13630#5 -13630#4 -13630#3 -13630#2 -13630#1 -13630#0 14446#1 14554#0 14554#1 14554#2 14554#3 14554#4 14554#5 14554#6 14554#7 13657#1 13421 13654#0 13654#1 13654#2 13654#3 13654#4 13526#2 13526#3 13526#4 -13525 -13293 -13221 -13677#2 -13677#1 -13677#0 -13739#10 -13739#9 -13739#8 -13739#7 -13739#6 -13739#5 -13739#4 13786#0 13786#1 13786#2 -13773#5 13563#0 13771"/>
        </vehicle>
        <vehicle id="other_1_221" type="other" depart="18394" departLane="best" arrivalPos="random">
            <route edges="-13908#4 -13908#3 -13908#2 -13462 13908#3 13908#4 13908#5 13908#6 13886#3 13886#4 13886#5 13886#6 13886#7 13886#8 13886#9 13886#10 13886#11 13831 13300 13857#0 13891 14018#2 13304 13773#0 13773#1 13773#2 13773#3 13773#4 13773#5 13775 13776 13739#1 13739#2 13739#3 13739#4 13739#5 13739#6 13739#7 13739#8 13739#9 13739#10 13739#11 13677#1 13677#2 13682 13689 13678#2 13678#3 13678#4 13678#5 13678#6 13678#7 13678#8"/>
        </vehicle>
        <vehicle id="other_1_294" type="other" depart="18400" departLane="best" arrivalPos="random">
            <route edges="13558 -14409#3 -14409#2 -14409#1 -14409#0 -14518#0 -14515#3 -14515#2 -14515#1 14517 13884#1 13884#2 13884#3 13884#4 13884#5 13886#8 13886#9 13886#10 13886#11 13831 13300 13857#0 13891 14018#2 13304 13773#0 13773#1 13773#2 13773#3 13773#4 13773#5 13775 13776 13739#1 13739#2 13739#3 13739#4 13739#5 13739#6 13739#7 13739#8 13739#9 13739#10 13739#11 13677#1 13677#2 13221 13293 13525 13526#1 -13654#4 -13654#3"/>
        </vehicle>
        <vehicle id="other_1_279" type="other" depart="18482" departLane="best" arrivalPos="random">
            <route edges="13748#2 13544#0 13544#1 -13544#1 -13544#0 -13748#2 -13748#1 -13748#0 13749#4 13749#5 13722#0 13744#1 13744#2 -13847#0 13882#0 13882#1 13882#2 14012#2 14012#3 13892 14034#1 14034#2 14034#3 14034#4 13375 13383#0 13383#1 13383#2 -13380 13389#1 13388 -13970#2 -13970#1 -13970#0 14048 13959#1 13959#2 13972#1 14056#4 14056#0 14056#1 14056#2 -14057 13945#0 13945#1 13945#2 13215#0"/>
        </vehicle>
        <vehicle id="other_GW1_645" type="other" depart="18496" departLane="best" arrivalPos="random">
            <route edges="14552 13374 13999 13327 14551#0 14551#1 13372 14416 13373 -14550#26 -14550#25 -14550#24 -14550#23 -14084#1 13994 -13991#0 -14550#20 -14550#19 -14550#18 -14550#17 -14550#16 -14550#15 -14550#14 -14550#13 -14550#12 -14550#11 -14550#10 -14550#9 -14550#8 -14550#7 -14550#6 -14550#5 -14550#3 -14550#2 -14550#1 -14550#0 13490 13340 13491#0 13491#1 13379 13389#3 13389#4 13380 13383#3 13383#0 13341 13495 13276 -13456 -13363 13866 13362 13872 13361 13833 13360 13356 13741#0 13741#1 13434#2 -13679 -13674 13221 13293 13525 13526#1 13526#2 13687#0 13687#1 13687#2 -13390 -14039#1 13527 13528#0 13528#1 -13527 14039#1 13390"/>
        </vehicle>
        <vehicle id="other_3_521" type="other" depart="18506" departLane="best" arrivalPos="random">
            <route edges="14510 -13323 -14469 -13322 -13485#3 -13485#2 -13485#1 -13485#0 13484 13516#1 -14509#3 -14509#2 -14509#1 -14509#0 -14525#5 14530#0 14530#1 14530#2 14530#3 14530#4 14530#5 14530#6 14081#6 13478 14712#1 14038 13465 14717 13401#0 13401#1 13401#2 13401#3 13401#4 13401#5 13401#6 13401#7 13218 -14080#3 -14080#2 -14080#1 -14080#0 -13971#1 -13971#0 13473#0 13473#1 13473#2 14011#0 14011#1 14011#2 13491#1 13379 13389#3 13191 13189#0 13189#1 13189#2 13189#3 13189#4 13189#5 13893#0 13893#1 13893#2 14033#4 -13889#3 -13889#2 -13889#1 -13889#0 -13848 13835 -13844 -13845 13846 13871 13875 -13937 -14021 13960 13948 13931"/>
        </vehicle>
        <vehicle id="other_3_457" type="other" depart="18507" departLane="best" arrivalPos="random">
            <route edges="14510 -13323 -14469 -13322 -13485#3 -13485#2 -13485#1 -13485#0 13484 13516#1 -14509#3 -14509#2 -14509#1 -14509#0 14525#6 14525#7 14507#1 13806#0 -13808#2 -13808#1 -13808#0 14465#0 14465#1 14637#0 14637#2 14466 14461#1 14461#2 -13700#1 -13700#0 -14458#5 -14458#4 -14458#3 -14458#2 -14458#1 -14458#0 -14457#0 -13320 -14459#1 -14459#0 -13321 -14486#5 -14403#5 -14403#4 -14405#11 -14405#10 -14405#9 -14405#8 -14405#7 -14405#6 -14405#5 -14405#4 -14405#2 -14405#1 -14405#0 -14489#1 13754#1 13754#2"/>
        </vehicle>
        <vehicle id="other_GW1_593" type="other" depart="18528" departLane="best" arrivalPos="random">
            <route edges="14552 13374 13999 13327 14551#0 14551#1 13372 14416 13373 -14550#26 -14550#25 -14550#24 -14550#23 -14084#1 13994 -13991#0 -14550#20 -14550#19 -14550#18 -14550#17 -14550#16 -14550#15 -14550#14 -14550#13 -14550#12 -14550#11 -14550#10 -14550#9 -14550#8 -14550#7 -14550#6 -14550#5 -14550#3 -14550#2 -14550#1 -14550#0 13490 13340 13491#0 13491#1 13379 13389#3 13389#4 13380 13383#3 -13375 14034#5 14034#6 14034#7 14034#8 -13897#1 -13897#0 -14624#3 -14624#2 -14624#1 -14624#0 -14043#0 -13219 14018#0 14018#1 14018#2 13304 13773#0 13773#1 13773#2 -13778#3 -13778#2 -13778#1 -13778#0 -14073 -14629#3 -14629#2 -14629#1"/>
        </vehicle>
        <vehicle id="other_3_461" type="other" depart="18530" departLane="best" arrivalPos="random">
            <route edges="13975 14551#1 13372 14416 13373 -14550#26 -14550#25 -14550#24 -14550#23 -14084#1 13994 -13991#0 -14550#20 -14550#19 -14550#18 -14550#17 -14550#16 -14550#15 -14550#14 -14550#13 -14550#12 -14550#11 -14550#10 -14550#9 -14550#8 -14550#7 -14550#6 -14550#5 -14550#3 -14550#2 -14550#1 -14550#0 13490 13340 13491#0 13491#1 13379 13389#3 13389#4 13380 13383#3 13383#0 13341 13495 13276 -13456 -13363 13866 13362 13872 13361 13833 13360 13356 13741#0 13741#1 13434#2 -13679 -13674 13221 13293 13525 13526#1 -13654#4 -13654#3 -13654#2 -13654#1 -13654#0 13648 13289 13417#1 13291 -14554#7 -14554#6 14621 -14621 14554#6 14554#7"/>
        </vehicle>
        <vehicle id="other_3_20" type="other" depart="18535" departLane="best" arrivalPos="random">
            <route edges="-13975 14532#1 14079#0 14079#1 13305 14412 14717 13401#0 13401#1 13401#2 13401#3 13401#4 13401#5 13401#6 13401#7 13218 13220#0 13220#1 13470#1 13470#2 13973#0 13973#1 14062 13886#0 13886#1 13886#2 13886#3 13886#4 13886#5 13886#6 13886#7 13886#8 13886#9 13886#10 13886#11 13831 13300 13857#0 13891 14018#2 13304 13773#0 13773#1 13773#2 13773#3 13773#4 13773#5 13775 13777#0 13777#1 13777#2 13750 13614 13719#0 13720#0 13720#1 13720#2 13720#3 13720#4 13720#5 13720#6 13424#2 13424#3 -13585#1 -13678#9 -13678#8 -13678#7 -14010#4 -13667#1 -14139#1 -14139#0 14139#0 14139#1 13667#1 14010#4"/>
        </vehicle>
        <vehicle id="other_2_439" type="other" depart="18539" departLane="best" arrivalPos="random">
            <route edges="-13983#1 -13983#0 13966#1 -13945#0 14057 14056#3 -13972#1 -13959#2 -13959#1 -13959#0 13970#0 13970#1 13970#2 -13369 13929 13189#3 13189#4 13189#5 13189#6 13189#7 -13191 13389#4 13380 13383#3 -13375 14034#5 14034#6 14034#7 14034#8 -13897#1 -13897#0 -14624#3 -14624#2 -14624#1 -14624#0 -14043#0"/>
        </vehicle>
        <vehicle id="other_2_69" type="other" depart="18601" departLane="best" arrivalPos="random">
            <route edges="-14468#2 -14468#1 -14468#0 -13485#2 -13485#1 -13485#0 13484 13516#1 -14509#3 -14509#2 -14509#1 -14509#0 14525#6 14525#7 14507#1 13806#0 -13808#2 -13808#1 -13808#0 14465#0 14465#1 14637#0 14401#0 14401#1 14401#2 14401#3 14401#4 14401#5 14401#6 14401#7 14401#8 14401#9 14401#11 14401#12 -14409#7 -14409#6 -14409#5 -14409#4 -14409#3 -14409#2 -14409#1 -14409#0 14518#2 14518#3 14518#4 13908#0 13908#1 13908#2 13908#3"/>
        </vehicle>
        <vehicle id="other_GW2_527" type="other" depart="18605" departLane="best" arrivalPos="random">
            <route edges="14526#0 14526#1 14526#2 14525#1 14525#2 14525#3 14525#4 14530#0 14530#1 14530#2 14530#3 14530#4 14530#5 14530#6 14081#6 13478 14712#1 14038 13465 14717 13401#0 13401#1 13401#2 13401#3 13401#4 13401#5 13401#6 13401#7 13218 13220#0 13220#1 13470#1 13470#2 13973#0 13973#1 13391 13474 13490 13340 13491#0 -14011#2"/>
        </vehicle>
        <vehicle id="other_GW2_314" type="other" depart="18653" departLane="best" arrivalPos="random">
            <route edges="14732 13353 -13627 -14431#2 -14428#2 -14428#1 -14428#0 -14433#1 -14433#0 14006#3 14006#0 -13630#6 -13630#5 -13630#4 -13630#3 -13630#2 -13630#1 -13630#0 14446#1 14554#0 14554#1 14554#2 14554#3 14554#4 14554#5 14554#6 14554#7 13657#1 13421 13654#0 13654#1 13654#2 13654#3 13654#4 13526#2 13526#3 13526#4 -13525 -13293 -13221 -13677#2 -13677#1 -13677#0 -13739#10 -13739#9 -13739#8 -13739#7 -13739#6 -13739#5 -13739#4 -13740#2 -13736#6"/>
        </vehicle>
        <vehicle id="other_3_500" type="other" depart="18657" departLane="best" arrivalPos="random">
            <route edges="-13999 -13374 -14552 14552 13374 13999 13327 14551#0 14551#1 13372 14416 13373 -14550#26 -14550#25 -14550#24 -14550#23 -14084#1 13994 -13991#0 -14550#20 -14550#19 -14550#18 -14550#17 -14550#16 -14550#15 -14550#14 -14550#13 -14550#12 -14550#11 -14550#10 -14550#9 -14550#8 -14550#7 -14550#6 -14550#5 -14550#3 -14550#2 -14550#1 -14550#0 13490 13340 13491#0 13491#1 13379 13389#3 13389#4 13380 13383#3 -13375 -13903#2 -13903#1 -13903#0 13888#4 13888#5 14012#0 14012#1 -13882#2 -13882#1 -13882#0 13847#0 13847#2 13847#3 13847#4 13847#5 -13774#1 -13774#0 13739#1 13739#2 13739#3 13786#0 13777#2 13750 13614 13719#0 13719#1 13719#2 14470#0 14470#1 14470#2 14470#3 14470#4 14085#0"/>
        </vehicle>
        <vehicle id="other_GW1_269" type="other" depart="18714" departLane="best" arrivalPos="random">
            <route edges="13597#0 13597#0-AddedOffRampEdge 13601 13350 13604 13274 13397 13273 13399#0 13399#1 13358 13927 13280 13608 13465 14717 13401#0 13401#1 13401#2 13401#3 13401#4 13401#5 13401#6 13401#7 13218 13220#0 13220#1 13470#1 13470#2 13973#0 13973#1 14062 13886#0 13886#1 13886#2 13886#3 13886#4 13886#5 13886#6 13886#7 13886#8 13886#9 13886#10 13886#11 13831 13300 13857#0 13891 14018#2 13304 13773#0 13773#1 13773#2 -13778#3 -13778#2 -13778#1 -13778#0 -14073 -14629#3 -14629#2 -14629#1"/>
        </vehicle>
        <vehicle id="other_2_177" type="other" depart="18743" departLane="best" arrivalPos="random">
            <route edges="13981 -14550#13 -14550#12 -14550#11 -14550#10 -14550#9 -14550#8 -14550#7 -14550#6 -14550#5 -14550#3 -14550#2 -14550#1 -14550#0 13490 13340 13491#0 13491#1 13379 13389#3 13389#4 13380 13383#3 13383#0 13341 13495 13276 -13456 -13363 13866 13362 13872 13361 13833 13360 13356 13741#0 13741#1 13434#2 -13679 -13674 13221 13293 13525 13526#1 -13654#4 -13654#3 -13654#2 -13662#2 -13662#1 -13661 -13354 13666 -14015#3"/>
        </vehicle>
        <vehicle id="other_GW2_488" type="other" depart="18747" departLane="best" arrivalPos="random">
            <route edges="-13646#1 13644#1 13644#2 -14051 -13696#1 -13696#0 -14498#1 13806#0 -13808#2 -13808#1 -13808#0 14465#0 14465#1 14637#0 14637#2 14466 14461#1 14461#2 -13700#1 -13700#0 -14458#5 -14458#4 -14458#3 -14458#2 -14458#1 -14458#0 -14457#0 -13320 -14459#1 -14459#0 -13321 -14486#5 -14403#5 -14403#4 -14405#11 -14405#10 -14405#9 -14405#8 -14405#7 -14405#6 -14405#5 -14405#4 -14405#2 -14405#1 -14405#0 -14489#1 -14489#0 14487#14 14487#15 14487#16 14071 14073 13778#0 13778#1 13778#2 13778#3 13773#3 13773#4 13773#5 13775 13776 13774#0 -13760#2 -13760#1 -13760#0 -13722#0 -13729#2 -13729#1"/>
        </vehicle>
        <vehicle id="other_3_450" type="other" depart="18754" departLane="best" arrivalPos="random">
            <route edges="13975 14551#1 13372 14416 13373 -14550#26 -14550#25 -14550#24 -14550#23 -14084#1 13994 -13991#0 -14550#20 -14550#19 -14550#18 -14550#17 -14550#16 -14550#15 -14550#14 -14550#13 -14550#12 -14550#11 -14550#10 -14550#9 -14550#8 -14550#7 -14550#6 -14550#5 -14550#3 -14550#2 -14550#1 -14550#0 13490 13340 13491#0 13491#1 13379 13389#3 13389#4 13380 13383#3 -13375 -13903#2 -13903#1 -13903#0 13888#4 13888#5 14012#0 14012#1 -13882#2 -13882#1 -13882#0"/>
        </vehicle>
        <vehicle id="other_2_311" type="other" depart="18761" departLane="best" arrivalPos="random">
            <route edges="-13701 13800 13759 14494#3 14494#4 14494#5 14494#6 14494#7 14486#3 14486#4 -14403#5 -14403#4 -14405#11 -14405#10 -14405#9 -14405#8 -14405#7 -14405#6 -14405#5 -14405#4 -14405#2 -14405#1 -14405#0 -14489#1 13754#1"/>
        </vehicle>
        <vehicle id="other_GW2_492" type="other" depart="18767" departLane="best" arrivalPos="random">
            <route edges="14732 13353 -13627 -14431#2 -14428#2 -14428#1 -14428#0 -14433#1 -14433#0 14006#3 14006#0 -13630#6 -13630#5 -13630#4 -13630#3 -13630#2 -13630#1 -13630#0 14446#1 14554#0 14554#1 14554#2 14554#3 14554#4 14554#5 14554#6 14554#7 13657#1 13421 13654#0 13654#1 13654#2 13654#3 13654#4 13526#2 13526#3 13526#4 -13525 -13293 -13221 -13677#2 -13677#1 -13677#0 -13739#10 -13739#9 -13739#8 -13739#7 -13739#6 -13739#5 -13739#4 13786#0 13786#1 13786#2 -13773#5 -13773#4 -13773#3 -13773#2 -13773#1 -13773#0 13299 14017#0 14017#1 -13886#11 -14019#2 -14019#1 -14019#0 14627#1 -13854 -13873"/>
        </vehicle>
        <vehicle id="other_2_210" type="other" depart="18801" departLane="best" arrivalPos="random">
            <route edges="-13911 14053#1 14501#10 14501#11 -13980#5 -13980#3 -13980#2 -13980#1 -13980#0 14507#1 13806#0 -13808#2 -13808#1 -13808#0 14465#0 14465#1 14637#0 14401#0 14401#1 14401#2 14401#3 14401#4 14401#5 14401#6 14401#7 14401#8 14401#9 14401#11 14401#12 -14409#7 -14409#6 -14409#5 -14409#4 -14409#3 -14409#2 -14409#1 -14409#0 -14518#0 -14515#3 -14515#2 -14515#1 -14515#0 -14519#1 -14519#0 14077#1 14078 -14045#5 14513#0 14513#1 14513#2"/>
        </vehicle>
        <vehicle id="other_GW1_498" type="other" depart="18846" departLane="best" arrivalPos="random">