<?xml version="1.0" encoding="UTF-8"?>

<!--
    Monaco SUMO Traffic (MoST) Scenario
    Copyright (C) 2018
    Lara CODECA

    This program is free software: you can redistribute it and/or modify
    it under the terms of the GNU General Public License as published by
    the Free Software Foundation, either version 3 of the License, or
    (at your option) any later version.

    This program is distributed in the hope that it will be useful,
    but WITHOUT ANY WARRANTY; without even the implied warranty of
    MERCHANTABILITY or FITNESS FOR A PARTICULAR PURPOSE.  See the
    GNU General Public License for more details.

    You should have received a copy of the GNU General Public License
    along with this program.  If not, see <http://www.gnu.org/licenses/>.
-->

<routes xmlns:xsi="http://www.w3.org/2001/XMLSchema-instance" xsi:noNamespaceSchemaLocation="http://sumo.dlr.de/xsd/routes_file.xsd"> 
    <vehicle id="commercial_1-1_42" type="commercial" depart="18002" departLane="best" arrivalPos="random">
        <route edges="152938#0 152788 152780#2 152162 152964#0 152964#1 152964#2 152964#3 -152790#1 152803 152954#3 152954#4 152954#5 152774 152813#0 152813#1 152813#2 152813#3 152384 152463 152291 153635 153634 152869#4 152869#5 152869#0 152869#1 152869#2 153633 152292#0 152292#0-AddedOffRampEdge 152292#1 152962"/>
    </vehicle>
    <vehicle id="commercial_GW1-1_419" type="commercial" depart="18002" departLane="best" arrivalPos="random">
        <route edges="153473 152299 152922 152252 153472#0 153472#1 152297 153337 152298 -153471#26 -153471#25 -153471#24 -153471#23 -153471#22 -153471#20 -153471#19 -153471#18 -153471#17 -153471#16 -153471#15 -153471#14 -153471#13 -153471#12 -153471#11 -153471#10 -153471#9 -153471#8 -153471#7 -153471#6 -153471#5 -153471#3 -153471#2 -153471#1 -153471#0 152413 152265 152414#0 152414#1 152303 152313#3 152313#4 152304 152307#3 152307#0 152266 152418 152201 -152380 -152288 152789 152287 152795 152286 152756 152285 152281 152664#0 152664#1 152358#2 152358#3 152358#0 152659#0 152659#1 152659#2 152659#3"/>
    </vehicle>
    <vehicle id="commercial_2-1_49" type="commercial" depart="18006" departLane="best" arrivalPos="random">
        <route edges="-153457#1 -153457#0 -153471#13 -153471#12 -153471#11 -153471#10 -153471#9 -153471#8 -153471#7 -153471#6 -153471#5 -153471#3 -153471#2 -153471#1 -153471#0 152533#0 152533#1 152132#2 152132#3 152132#4 152132#5 152816#0 152821 152813#2 152813#3 152383#0 152383#1 152772 152377 152766 -152764 152941 -152772"/>
    </vehicle>
    <vehicle id="commercial_2-1_137" type="commercial" depart="18006" departLane="best" arrivalPos="random">
        <route edges="153387#1 153382#1 153382#2 -152623#1 -152623#0 -153379#1 -153379#0 -152172 -152171#2 -152171#1 -152171#0 153378#1 153378#2 153378#3 153378#4 153378#5 -152241 153364#0 153364#1 152240 152560 152302 -153367#4 -153367#3 -153367#2 153475#0 153475#1 153475#2 153475#3 153475#4 153475#5 153475#6 153475#7 152211 -153373#2 -153373#1 -153373#0 152213 -152573#1 152167 152168 153370 152160#1 152342#0 152455 -152454#0"/>
    </vehicle>
    <vehicle id="commercial_1-GW2_122" type="commercial" depart="18014" departLane="best" arrivalPos="random">
        <route edges="-152577#1 -152577#0 152571 152214 153360#0 153360#1 153360#3 153360#4 153318#0 153318#1 153318#2 153318#3 153318#4 153354#0 153354#1 153349#0 153349#1 153349#2 153352#2 -152952 -152278 152549"/>
    </vehicle>
    <vehicle id="commercial_GW1-1_263" type="commercial" depart="18021" departLane="best" arrivalPos="random">
        <route edges="153473 152299 152922 152252 153472#0 153472#1 152297 153337 152298 -153471#26 -153471#25 -153471#24 -153471#23 -153471#22 -153471#20 -153471#19 -153471#18 -153471#17 -153471#16 -153471#15 -153471#14 -153471#13 -153471#12 -153471#11 -153471#10 153003#0 153003#1 153003#2 153003#3 153003#4 153003#5 153003#6 153003#7 152397#2 152933#0 152933#1"/>
    </vehicle>
    <vehicle id="commercial_GW1-1_166" type="commercial" depart="18024" departLane="best" arrivalPos="random">
        <route edges="153473 152299 152922 152252 153472#0 153472#1 152297 153337 152298 -153471#26 153474#0 153474#1 153474#2 153474#3 153474#5 153474#6 153474#7 153474#8 153474#9 153474#11 152325#1 152325#2 152325#3 152325#4 152325#5 152161 152163#0 152163#1 152394#1 152394#2 152896#0 152896#1 152983 152809#0 152809#1 152809#2 152809#3 152809#4 152809#5"/>
    </vehicle>
    <vehicle id="commercial_2-1_261" type="commercial" depart="18030" departLane="best" arrivalPos="random">
        <route edges="153001#0 153001#1 153001#2 153001#3 152163#0 152163#1 152394#1 152394#2 152896#0 152896#1 152315 152398 -152953 152890#1 152890#2 152977#0 152977#1 152977#2 -152978 152868#0 152868#1 152868#2 152868#3 152293 -152641 152393#2 152393#3 152853 -152393#4 -152393#3"/>
    </vehicle>
    <vehicle id="commercial_1-GW2_205" type="commercial" depart="18033" departLane="best" arrivalPos="random">
        <route edges="-152818#3 -152818#2 -152818#1 -152818#0 152827#4 152827#5 152827#6 152865#4 152865#5 153001#0 153001#1 153001#2 153001#3 -152161 -152325#5 -152325#4 -152325#3 -152325#2 -152325#1 -152325#0 153632 152400 -153002#6 -153451#6 -153451#5 -153451#4 -153451#3 -153451#2 -153451#1 -153451#0 -153446#4 -153446#3 -153446#2 -153446#1 -153446#0 -153447#1 -153447#0"/>
    </vehicle>
    <vehicle id="commercial_1-1_587" type="commercial" depart="18047" departLane="best" arrivalPos="random">
        <route edges="152315 152398 152413 152265 152414#0 -152933#2 -152933#1 -152933#0 152397#3 152894#0 152894#1 152894#2 -152865#4 -152865#3 -152865#2 -152865#1 -152865#0 153547#3 153547#0 152940#0 152940#1 -152802 -152809#9 152796 152777"/>
    </vehicle>
    <vehicle id="commercial_GW1-1_64" type="commercial" depart="18051" departLane="best" arrivalPos="random">
        <route edges="153473 152299 152922 152252 153472#0 153472#1 152297 153337 152298 -153471#26 153474#0 153474#1 153474#2 153474#3 153474#5 153474#6 153474#7 153474#8 153474#9 153474#11 152325#1 152325#2 152325#3 152325#4 152325#5 152161 152163#0 152163#1 152394#1 152394#2 152394#3 -152886#1 -152886#0 152295 -152887#1"/>
    </vehicle>
    <vehicle id="commercial_1-GW1_414" type="commercial" depart="18068" departLane="best" arrivalPos="random">
        <route edges="-152661 -152663#0 152672#5 152645#0 152667#1 152667#2 -152770#0 152805#0 152805#1 152805#2 152815 152955#1 152955#2 152955#3 152955#4 152300 152307#0 152307#1 152307#2 -152304 152313#1 152313#2 -152303 152276 152525 -152325#5 -152325#4 -152325#3 -152325#2 -152325#1 -152325#0 153632 153629#1 153631#1 152959 -152531 -152205 -152850 -152283 152320#0 152320#1 152197 152322 152200 152324 152318#1"/>
    </vehicle>
    <vehicle id="commercial_1-GW1_242" type="commercial" depart="18071" departLane="best" arrivalPos="random">
        <route edges="-152652#0 152697#0 152697#1 -152770#5 -152770#4 -152770#3 -152770#2 -152770#0 152805#0 152805#1 152805#2 152815 152955#1 152955#2 152955#3 152955#4 152300 152307#0 152307#1 152307#2 -152304 152313#1 152313#2 152313#3 152134 152132#0 152133 152963 -152265 -152413 -152953 153471#1 153471#2 153471#3 153471#5 153471#6 153471#7 153471#8 153471#9 153471#10 153471#11 153471#12 153471#13 153471#14 153471#15 153471#16 153471#17 153471#18 153471#19 153471#20 153471#22 153471#23 153471#24 153471#25 153471#26 -152298 -153337 -152297 -153472#1 -153472#0 -152252 -152922 -152299 -153473"/>
    </vehicle>
    <vehicle id="commercial_GW2-1_179" type="commercial" depart="18087" departLane="best" arrivalPos="random">
        <route edges="-153455 152251 153454#0 153454#1 153453#1 153000#0 153000#1 152230 153333 153636 152325#0 152325#1 152325#2 152325#3 152325#4 152325#5 152161 152163#0 152163#1 152394#1 152394#2 152896#0 152896#1 152983 152809#0 152809#1 152809#2 152809#3 152809#4 152809#5 152809#6 152809#7 152809#8 152809#9 152809#10 152809#11 152754 152225 152780#0 152814 152939#2 152229 152696#0 152762#0 152762#1 152762#2 152762#3 -152934#4 152541 -152762#2"/>
    </vehicle>
    <vehicle id="commercial_2-1_147" type="commercial" depart="18088" departLane="best" arrivalPos="random">
        <route edges="153471#20 153471#22 153471#23 153471#24 153471#25 153474#0 153474#1 153474#2 153474#3 153474#5 153474#6 153474#7 153474#8 153474#9 153474#11 152325#1 152325#2 152325#3 152325#4 152325#5 152161 152163#0 152163#1 152394#1 152394#2 152896#0 152896#1 152983 152809#0 152809#1 152809#2 152809#3 152809#4"/>
    </vehicle>
    <vehicle id="commercial_1-3_275" type="commercial" depart="18097" departLane="best" arrivalPos="random">
        <route edges="152825#1 152825#2 -152831#4 -152831#3 -152831#2 -152831#1 -152831#0 153439#5 152887#1 -152295 152886#0 152886#1 152394#0 -152163#1 -152163#0 -152161 -152325#5 -152325#4 -152325#3 -152325#2 -152325#1 -153474#11 -153474#9 -153474#8 -153474#7 -153474#6 -153474#5 -153474#3 -153474#2 -153474#1 -153474#0 153471#26 -152298 -153337 -152297 -153472#1 -152898"/>
    </vehicle>
    <vehicle id="commercial_GW2-1_137" type="commercial" depart="18099" departLane="best" arrivalPos="random">
        <route edges="-153455 152251 153454#0 153454#1 153453#1 153000#0 153000#1 152230 153333 153636 152325#0 152325#1 152325#2 152325#3 152325#4 152325#5 152161 -153001#3 -153001#2 -153001#1 -153001#0 -152894#1 -152894#0 152397#0 152397#1 152397#2 152933#0 152933#1 152933#2 152414#1 152303 152313#3 152313#4 152304 152307#3 -152300 152955#5 152955#6 152955#7"/>
    </vehicle>
    <vehicle id="commercial_1-GW2_249" type="commercial" depart="18128" departLane="best" arrivalPos="random">
        <route edges="152813#1 152813#2 152813#3 152811#0 152811#1 152811#2 152811#3 152826#0 152826#1 152826#2 152300 152307#0 152307#1 152307#2 -152304 152313#1 152313#2 -152303 152276 152525 -152325#5 -152325#4 -152325#3 -152325#2 -152325#1 -152325#0 153632 152400 -153002#6 -153451#6 -153451#5 -153451#4 -153451#3 -153451#2 -153451#1 -153451#0 153446#5 153446#6 153446#7 153428#1 153419#1 152619#0 152619#1 152972 -152567#2 -152567#1 152569#1"/>
    </vehicle>
    <vehicle id="commercial_1-3_311" type="commercial" depart="18159" departLane="best" arrivalPos="random">
        <route edges="152315 152398 152413 152265 152414#0 152414#1 152276 152525 -152325#5 -152325#4 -152325#3 -152325#2 -152325#1 -152325#0 153632 152400 -153002#6 -153451#6 -153451#5 -153451#4 -153451#3 -153451#2 -153451#1 -153451#0 -153446#4 -153446#3 -153446#2 -153446#1 -153446#0 -153447#1 -153447#0"/>
    </vehicle>
    <vehicle id="commercial_1-1_342" type="commercial" depart="18169" departLane="best" arrivalPos="random">
        <route edges="152229 152696#0 152762#0 152762#1 152762#2 -152541 -152776"/>
    </vehicle>
    <vehicle id="commercial_2-1_216" type="commercial" depart="18173" departLane="best" arrivalPos="random">
        <route edges="-153437#4 -153437#3 -153437#2 -153437#1 -153437#0 153437#0 153437#1 153437#2 153437#3 153437#4 153437#5 152957 -153440#1 -153440#0 -153399#8 -153399#7 -153399#6 -153399#5 -153399#4 -153399#3 -153399#2 -153399#1 -153399#0 -152702#0 152710 152706#0 152707"/>
    </vehicle>
    <vehicle id="commercial_3-1_188" type="commercial" depart="18182" departLane="best" arrivalPos="random">
        <route edges="153454#1 153453#1 153000#0 153000#1 152230 153333 153636 152325#0 152325#1 152325#2 152325#3 152325#4 152325#5 152161 152163#0 152163#1 152394#1 152394#2 152896#0 152896#1 152983 152809#0 152809#1 152809#2 152809#3 152809#4 152809#5 152809#6 152809#7 152809#8 152809#9 152809#10 152809#11 152754 152225 152780#0 152814 152939#2 152229 152696#0 152762#0 152762#1 152762#2 152762#3 152934#5 152708"/>
    </vehicle>
    <vehicle id="commercial_3-1_277" type="commercial" depart="18192" departLane="best" arrivalPos="random">
        <route edges="-153452 153447#1 153447#2 153446#1 153446#2 153446#3 153446#4 153446#5 153446#6 153446#7 153428#1 152729#0 -152731#2 -152731#1 -152731#0 153386#0 153386#1 153387#1 153382#1 153382#2 -152623#1 -152623#0 -153379#1 -153379#0 -152172 -152171#2 -152171#1 -152171#0 153378#1 153378#2 153378#3 153378#4 153378#5 -152241 153364#0 153364#1 152240 152560 152302 -153367#4 -153367#3 -153367#2 153475#0 153475#1 153475#2 153475#3 153475#4 153475#5 153475#6 153475#7 152580#1 152345 152577#0 152577#1 -152585#2 -152585#1 -152585#0 -153375#4 -153375#3 -153375#2 153560#0 153560#1 -153560#1 -153560#0 153375#2"/>
    </vehicle>
    <vehicle id="commercial_1-2_159" type="commercial" depart="18196" departLane="best" arrivalPos="random">
        <route edges="-152868#1 -152868#0 152978 152977#3 -152895#1 -152895#0 152970#3 152970#4 152878#0 152878#1 152878#2 152869#5 152869#0 152869#1 152869#2 153633 152292#0 152292#0-AddedOffRampEdge 152292#1 152962 152811#2 152811#3 152811#4 152811#5 -152805#2 -152805#1 -152799 152934#1 152934#2 152541 -152762#2 -152775 -152701#3 -152701#2 -152701#1 -152701#0 -152994 -152992 -153408#16 -153408#15 -153408#14 153410#0 153410#1 153410#2 153410#3 153410#4 153410#5 -153405#6 -153405#5 -153405#4 -153405#3 -153405#2 -153405#1 -153405#0 153418#3 153418#4 152250#0 152250#1 -153435#6"/>
    </vehicle>
    <vehicle id="commercial_1-3_146" type="commercial" depart="18204" departLane="best" arrivalPos="random">
        <route edges="152529#2 152530#4 152530#6 152649#4 152665#3 152665#4 152277 -152285 -152756 -152286 -152795 -152287 -152789 152288 152380 -152201 152456 152306 152307#2 -152304 152313#1 152313#2 -152303 152276 152525 -152325#5 -152325#4 -152325#3 -152325#2 -152325#1 -152325#0 153632 153629#1 153631#1 152997#0 152997#1 -153453#1 152898"/>
    </vehicle>
    <vehicle id="commercial_1-2_3" type="commercial" depart="18215" departLane="best" arrivalPos="random">
        <route edges="152878#0 152878#1 152878#2 152869#5 152869#0 152869#1 152869#2 153633 152292#0 152292#0-AddedOffRampEdge 152292#1 152962 152811#2 152811#3 152811#4 152811#5 -152805#2 -152805#1 -152799 152934#1 152934#2 152541 -152762#2 -152775 -152701#3 -152701#2 -152701#1 -152701#0 -152994 -152992 -153408#16 -153408#15 -153408#14 153410#0 153410#1 153326#0 153326#1 153326#2 153326#4 153326#5 153326#6 153326#7 153326#8 153326#9 153326#10 153326#11 153324#4 153324#5 153407#5 152246 153380#0 153380#1 152245 153378#0 -153381 152171#1 152171#2 152172 153379#0 153379#1 153379#2 152623#1 -153382#2 -153382#1 -153387#1"/>
    </vehicle>
    <vehicle id="commercial_1-3_229" type="commercial" depart="18221" departLane="best" arrivalPos="random">
        <route edges="-152772 152379 152811#0 152811#1 152811#2 152811#3 152826#0 152826#1 152826#2 152300 152307#0 152307#1 152307#2 -152304 152313#1 152313#2 -152303 152276 152525 -152325#5 -152325#4 -152325#3 -152325#2 -152325#1 -152325#0 153632 153629#1 153631#1 152997#0 152997#1 -153453#1 -153453#0"/>
    </vehicle>
    <vehicle id="commercial_1-2_251" type="commercial" depart="18239" departLane="best" arrivalPos="random">
        <route edges="-152158#0 152868#3 152293 -152641 -152393#1 -152393#0 152453#3 -152446 152869#1 152869#2 153633 152292#0 152292#0-AddedOffRampEdge 152292#1 152962 152811#2 152811#3 152811#4 152811#5 -152805#2 -152805#1 -152799 152934#1 152934#2 152541 -152762#2 -152775 -152701#3 -152701#2 -152701#1 -152701#0 -152994 -152992 -153408#16 -153408#15 -153408#14 153410#0 153410#1 153326#0 153326#1 153326#2 153326#4 153326#5 153326#6 153326#7 153326#8 153326#9 153326#10 153326#11 153324#4 153324#5 153407#5 152246 153380#0 153380#1 152245 153378#0 -153381 152171#1 152171#2 152172 153379#0 153379#1 153379#2 153382#5 152628"/>
    </vehicle>
    <vehicle id="commercial_1-1_242" type="commercial" depart="18240" departLane="best" arrivalPos="random">
        <route edges="-152201 152456 152306 152307#2 152307#3 -152300 -152826#2 -152826#1 -152826#0 152811#4 152811#5 -152805#2 -152805#1 -152799 152934#1 152934#2 152541 -152762#2 -152775 -152701#3 -152701#2 152710 152706#0 152707 152691 -152680#2 -152688#2"/>
    </vehicle>
    <vehicle id="commercial_1-2_43" type="commercial" depart="18242" departLane="best" arrivalPos="random">
        <route edges="152304 152307#3 152307#0 152307#1 152307#2 -152304 152313#1 152313#2 152313#3 152134 152132#0 152133 152963 -152265 -152413 -152953 153471#1 153471#2 153471#3 153471#5 152979#0 152979#1 -153334#0 153334#0 -152979#1 -152979#0 -153471#5"/>
    </vehicle>
    <vehicle id="commercial_1-1_52" type="commercial" depart="18263" departLane="best" arrivalPos="random">
        <route edges="152983 152809#0 152809#1 152809#2 152809#3 152809#4 152809#5 152809#6 152809#7 152809#8 152809#9 152809#10 152809#11 152754 152225 152780#0 152814 152939#2 152229 152696#0 152762#0"/>
    </vehicle>
    <vehicle id="commercial_1-1_104" type="commercial" depart="18265" departLane="best" arrivalPos="random">
        <route edges="-152600#2 -152600#1 -152600#0 -152662#10 -152662#9 -152662#8 -152662#7 -152662#6 -152662#5 -152662#4 -152662#3 -152662#2 -152662#1 152697#0 152697#1 -152770#5 -152770#4 -152770#3 -152770#2 -152770#0 152805#0 152805#1 152805#2 152815 152955#1 152955#2 152955#3 152955#4 152300 152307#0 152307#1 152307#2 -152304 152313#1 152312 -152893#2 -152893#1 -152893#0 153555 152970#2 152970#3 152881#0 152961#0 152961#1 152453#1 -152391#2 -152391#1 -152868#1"/>
    </vehicle>
    <vehicle id="commercial_1-3_185" type="commercial" depart="18265" departLane="best" arrivalPos="random">
        <route edges="-152787#0 -152818#3 -152818#2 -152818#1 -152818#0 152827#4 152827#5 152827#6 152865#4 152865#5 153001#0 153001#1 153001#2 153001#3 -152161 -152325#5 -152325#4 -152325#3 -152325#2 -152325#1 -152325#0 153632 153629#1 153631#1 152997#0 152997#1 -153453#1 -153453#0 -153454#0"/>
    </vehicle>
    <vehicle id="commercial_GW2-1_79" type="commercial" depart="18291" departLane="best" arrivalPos="random">
        <route edges="153447#0 153447#1 153447#2 153446#1 153446#2 153446#3 153446#4 153451#0 153451#1 153451#2 153451#3 153451#4 153451#5 153451#6 153002#6 152401 153631#1 152997#0 152833 153000#1 152230 153333 153636 152325#0 152325#1 152325#2 152325#3 152325#4 152325#5 152161 152163#0 152163#1 152394#1 152394#2 152896#0 152896#1 152315 152398 -152953 152890#1 152890#2 152977#0 152977#1 152977#2 -152978 -152881#1 152961#0"/>
    </vehicle>
    <vehicle id="commercial_1-1_303" type="commercial" depart="18295" departLane="best" arrivalPos="random">
        <route edges="152825#1 152825#2 152831#5 152831#6 152809#3 152809#4 152809#5 152809#6 152809#7 152809#8 152809#9 152809#10 152809#11 152754 152225 152780#0 152814 152939#2 152229 152696#0 152762#0 152762#1 152762#2 152762#3 152711 152376 -152667#2 -152667#1 -152645#0 -152672#5 -152672#4 -152672#3 -152672#2 -152672#1 -152672#0 152649#0 152649#1 152649#2 152529#0 152529#2 152529#4 152529#5 152529#6 152529#7 -152160#1 -152452#2 152452#0"/>
    </vehicle>
    <vehicle id="commercial_1-1_105" type="commercial" depart="18304" departLane="best" arrivalPos="random">
        <route edges="152813#1 152813#2 152813#3 152811#0 152811#1 152811#2 152811#3 152811#4 152811#5 -152805#2 -152805#1 -152799 152934#1 152934#2 152541 -152762#2 -152762#1 -152762#0 -152696#0 152224 152938#0 152938#1 -152809#11 -152809#10 152802 152940#2"/>
    </vehicle>
    <vehicle id="commercial_1-GW1_311" type="commercial" depart="18312" departLane="best" arrivalPos="random">
        <route edges="152936#4 152279 152584 152585#1 152585#2 152577#2 152577#3 152577#4 152449#2 152449#3 152601#0 152601#1 -152612 -152605 152597 152602 152358#3 152358#0 152358#1 -152664#1 -152664#0 -152221 -152285 -152756 -152286 -152795 -152287 -152789 152288 152380 -152201 152456 152306 152307#2 -152304 152313#1 152313#2 152313#3 152134 152132#0 152133 152963 -152265 -152413 -152953 153471#1 153471#2 153471#3 153471#5 153471#6 153471#7 153471#8 153471#9 153471#10 153471#11 153471#12 153471#13 153471#14 153471#15 153471#16 153471#17 153471#18 153471#19 153471#20 153471#22 153471#23 153471#24 153471#25 153471#26 -152298 -153337 -152297 -153472#1 -153472#0 -152252 -152922 -152299 -153473"/>
    </vehicle>
    <vehicle id="commercial_1-GW2_135" type="commercial" depart="18328" departLane="best" arrivalPos="random">
        <route edges="152814 152939#2 152229 152696#0 152696#1 152696#2 152696#3 152696#4 152696#5 152698 152699 152662#1 152662#2 152662#3 152662#4 152662#5 152662#6 152662#7 152662#8 152662#9 152662#10 152662#11 152600#1 152600#2 152164 152218 152448 152449#1 -152577#4 -152577#3 -152577#2 -152577#1 -152577#0 152571 152214 153360#0 153360#1 153360#3 153360#4 153318#0 153318#1 153318#2 153318#3 153318#4 153354#0 153354#1 153349#0 153349#1 153349#2 153352#2 -152952 -152278 152549"/>
    </vehicle>
    <vehicle id="commercial_1-GW2_263" type="commercial" depart="18340" departLane="best" arrivalPos="random">
        <route edges="-152378#0 -152417#1 -152417#0 -152784#0 152382 152811#1 152811#2 152811#3 152826#0 152826#1 152826#2 152300 152307#0 152307#1 152307#2 -152304 152313#1 152313#2 -152303 152276 152525 -152325#5 -152325#4 -152325#3 -152325#2 -152325#1 -152325#0 153632 153629#1 153631#1 152997#0 152997#1 -153453#1 -153453#0 -153454#0 -152251 153455"/>
    </vehicle>
    <vehicle id="commercial_GW2-1_96" type="commercial" depart="18364" departLane="best" arrivalPos="random">
        <route edges="153651 152278 -152550 -153352#2 -153349#2 -153349#1 -153349#0 -153354#1 -153354#0 -153318#4 -153318#3 -153318#2 -153318#1 -153318#0 -153358#3 152555 -152576#4 -152576#3 -152576#2 -152576#1 -152576#0 152340#1 -152574#1 -152574#0 -152215 -152582#3 -152582#2 -152582#1 -152582#0 152219 152165#0 152165#1 152602 152358#3 152358#0 152358#1 -152664#1 -152664#0 -152221 -152285 -152756 -152286 -152795 -152287 -152789 152288 152380 -152201 152456 152306 152307#2 152307#3 -152300 152955#5 152955#6 152955#7 152955#8 152955#10 152954#2 152954#3 152954#4 -152812#3 -152812#2 -152812#1 -152812#0 -152771 152855 152857 -152884 152861 152859 -152859 -152861"/>
    </vehicle>
    <vehicle id="commercial_GW2-1_271" type="commercial" depart="18375" departLane="best" arrivalPos="random">
        <route edges="153651 152278 -152550 -153352#2 -153349#2 -153349#1 -153349#0 -153354#1 -153354#0 -153318#4 -153318#3 -153318#2 -153318#1 -153318#0 -153360#4 -153360#3 -153360#1 -153360#0 152341#1 152216 152580#1 152345 152577#0 152577#1 152577#2 152577#3 152577#4 152449#2 152449#3 152449#4 -152448 -152218 -152164 -152600#2 -152600#1 -152600#0 -152662#10 -152662#9 -152662#8 -152662#7 -152662#6 -152662#5 -152662#4 152709 152169#0 152169#1 -152696#5 152486#0 152486#1 152486#2 152486#3 152691 152680#3 152692 -152486#1 -152486#0"/>
    </vehicle>
    <vehicle id="commercial_2-1_30" type="commercial" depart="18399" departLane="best" arrivalPos="random">
        <route edges="-153437#4 -153437#3 -153437#2 -153437#1 -153437#0 153437#0 153437#1 153437#2 153437#3 153437#4 153437#5 152957 -153440#1 -153440#0 -153399#8 -153399#7 -153399#6 -153399#5 -153399#4 -153399#3 -153399#2 -153399#1 -153399#0 -152702#0 152701#2 152701#3 152775 152762#2 152762#3 152711 152376 -152770#0"/>
    </vehicle>
    <vehicle id="commercial_1-GW2_225" type="commercial" depart="18405" departLane="best" arrivalPos="random">
        <route edges="-152500 -152861 152884 -152856 -152855 152771 152812#0 152812#1 152812#2 152812#3 152954#5 152954#1 152954#2 152954#3 -152816#2 -152816#1 -152816#0 152132#6 152132#7 -152134 152313#4 152313#1 152313#2 -152303 152276 152525 -152325#5 -152325#4 -152325#3 -152325#2 -152325#1 -152325#0 153632 152400 -153002#6 -153451#6 -153451#5 -153451#4 -153451#3 -153451#2 -153451#1 -153451#0 -153446#4 -153446#3 -153446#2 -153446#1 -153446#0 -153447#1 -153447#0"/>
    </vehicle>
    <vehicle id="commercial_1-1_67" type="commercial" depart="18414" departLane="best" arrivalPos="random">
        <route edges="152762#0 152762#1 152762#2 152762#3 152934#5 -152697#1 -152697#0 152662#1 152662#2 152662#3 152662#4 152662#5 152662#6 152662#7 152662#8 152662#9 152662#10 152662#11 152600#1 152600#2 152164 152218 152448 152449#1 152449#2 152610#0 152610#1 152610#2 -152314 -152960#1 -152960#0 152932#0 152932#1 152932#2 152932#3"/>
    </vehicle>
    <vehicle id="commercial_1-GW1_408" type="commercial" depart="18430" departLane="best" arrivalPos="random">
        <route edges="153408#11 153408#12 153408#13 153408#14 153408#15 153408#16 152992 152994 152701#0 152701#1 152701#2 152701#3 -152696#2 -152696#1 -152696#0 152224 152938#0 152788 152780#2 152162 152964#0 152964#1 152964#2 152964#3 -152790#1 152819#0 152819#1 152132#7 152132#0 152133 152963 -152265 -152413 -152953 153471#1 153471#2 153471#3 153471#5 153471#6 153471#7 153471#8 153471#9 153471#10 153471#11 153471#12 153471#13 153471#14 153471#15 153471#16 153471#17 153471#18 153471#19 153471#20 153471#22 153471#23 153471#24 153471#25 153471#26 -152298 -153337 -152297 -153472#1 -153472#0 -152252 -152922 -152299 -153473"/>
    </vehicle>
    <vehicle id="commercial_GW1-1_8" type="commercial" depart="18452" departLane="best" arrivalPos="random">
        <route edges="153473 152299 152922 152252 153472#0 153472#1 152297 153337 152298 -153471#26 153474#0 153474#1 153474#2 153474#3 153474#5 153474#6 153474#7 153474#8 153474#9 153474#11 152325#1 152325#2 152325#3 152325#4 152325#5 152161 152163#0 152163#1 152394#1 152394#2 152394#3 -152886#1 -152886#0 152295 -152887#1 -152887#0 -153439#4 -153439#3 -153439#2 -153439#0 -153436#3 -153436#2 153441 152825#1 152825#2"/>
    </vehicle>
    <vehicle id="commercial_1-2_181" type="commercial" depart="18463" departLane="best" arrivalPos="random">
        <route edges="152642#0 152643#0 152643#1 152643#2 152643#3 152643#4 152643#5 152643#6 152348#2 152348#3 -152508#1 -152601#9 -152601#8 -152601#7 -152601#6 -152601#5 -152601#4 -152601#3 -152601#2 -152601#1 -152601#0 152449#4 152449#1 -152577#4 -152577#3 -152577#2 -152577#1 -152577#0 152571 152214 153360#0 153360#1 153360#3 153360#4 153318#0 153318#1 153318#2 153318#3 153318#4 153354#0 153354#1 153349#0 153349#1 153349#2 153352#2 -152952 -152278 152549 153651 152278 -152550"/>
    </vehicle>
    <vehicle id="commercial_GW1-1_227" type="commercial" depart="18466" departLane="best" arrivalPos="random">
        <route edges="152520#0 152520#0-AddedOffRampEdge 152524 152275 152527 152199 152321 152198 152323#0 152323#1 152283 152850 152205 152531 152389 153636 152325#0 152325#1 152325#2 152325#3 152325#4 152325#5 152161 152163#0 152163#1 152394#1 152394#2 152896#0 152896#1 152983 152809#0 152809#1 152809#2 152809#3 152809#4 152809#5 152809#6 152809#7 152809#8 152809#9 152809#10 152809#11 152754 152225 152780#0 152814 152939#2 152229 152696#0 152762#0 152762#1 152762#2 152762#3 152711 152376 -152667#2 -152667#1 -152645#0 -152672#5 152663#0 152663#1 -152659#6 -152659#5 -152659#4 -152659#3 -152659#2 -152659#1 -152659#0 152358#1 152358#2 152358#3 152358#0 152659#0 152659#1 152659#2 152659#3 152659#4"/>
    </vehicle>
    <vehicle id="commercial_1-2_212" type="commercial" depart="18467" departLane="best" arrivalPos="random">
        <route edges="-152991#7 -152991#6 -152991#5 -152991#4 -152991#3 -152991#2 -152991#0 -153326#4 -153405#9 -153405#8 -153405#7 -153405#6 -153405#5 -153405#4 -153405#3 -153405#2 -153405#1 -153405#0 153418#3 153418#4 152250#0 152250#1 -153435#6 -153435#5 -153435#4 -153435#3 -153435#2 -153435#1 -153435#0 153439#2 153439#3 153439#4 153439#5 152887#1 -152295 152886#0 152886#1 152394#0 -152163#1 -152163#0 -152161 -152325#5 -152325#4 -152325#3 -152325#2 -152325#1 -152325#0 153632 153629#1 153631#1 152997#0 152997#1 -153453#1 -153453#0 -153452"/>
    </vehicle>
    <vehicle id="commercial_3-1_324" type="commercial" depart="18467" departLane="best" arrivalPos="random">
        <route edges="153447#0 153447#1 153447#2 153446#1 153446#2 153446#3 153446#4 153451#0 153451#1 153451#2 153451#3 153451#4 153451#5 153451#6 153002#6 152401 153631#1 152997#0 152833 153000#1 152230 153333 153636 152325#0 152325#1 152325#2 152325#3 152325#4 152325#5 152161 152163#0 152163#1 152394#1 152394#2 152896#0 152896#1 152315 152398 -152953 152890#1 152890#2 152977#0 152977#1 152977#2 152977#3 -152895#1 -152895#0 152970#3 152970#4 152970#1 -153555 152969"/>
    </vehicle>
    <vehicle id="commercial_1-1_479" type="commercial" depart="18472" departLane="best" arrivalPos="40.16923210112182">
        <route edges="-152827#2 -152827#1 -152827#0 -152982#1 -152982#0 -152790#1 152803 152954#3 152954#4 152954#5 152774 152813#0 152813#1 152813#2 152813#3 152384 152463 152291 153635 153634 152869#4 152869#5 152869#0 152446"/>
        <stop parkingArea="1151" until="46212"/>
    </vehicle>
    <vehicle id="commercial_1-1_383" type="commercial" depart="18478" departLane="best" arrivalPos="random">
        <route edges="-152584 -152279 152589 -152936#3 -152936#2 -152936#1 -152936#0 152960#0 152960#1 152314 -152610#2 -152610#1 -152610#0 152449#3 152449#4 -152448 -152218 -152164 -152600#2 -152600#1 -152600#0 -152662#10 -152662#9 -152662#8 -152662#7 -152662#6 -152662#5 -152662#4 152709 152169#0 152169#1 -152696#5 -152696#4 -152696#3 -152696#2 -152696#1 -152696#0 152224 152938#0 152788 152780#2 152162 152822#0 152822#1 153547#0 152940#0 152940#1"/>
    </vehicle>
    <vehicle id="commercial_GW1-1_50" type="commercial" depart="18483" departLane="best" arrivalPos="random">
        <route edges="153473 152299 152922 152252 153472#0 153472#1 152297 153337 152298 -153471#26 -153471#25 -153471#24 -153471#23 -153471#22 -153471#20 -153471#19 -153471#18 -153471#17 -153471#16 -153471#15 -153471#14 -153471#13 -153471#12 -153471#11 -153471#10 -153471#9 -153471#8 -153471#7 -153471#6 -153471#5 -153471#3 -153471#2 -153471#1 -153471#0 152413 152265 152414#0 152414#1 152303 152313#3 152313#4 152304 152307#3 -152300 -152826#2 -152826#1 -152826#0 152811#4 152811#5 -152805#2 -152805#1 -152805#0 152770#0 152770#2 152770#3 152770#4 152770#5 -152697#1 -152697#0 152662#1 152662#2 152662#3 152662#4 152662#5 152662#6 152662#7 152662#8 152662#9 152662#10 152662#11 152600#1 152600#2 152164 152218 152448 152449#1 152449#2 152610#0"/>
    </vehicle>