<?xml version="1.0" encoding="UTF-8"?>

<!--
    Monaco SUMO Traffic (MoST) Scenario
    Copyright (C) 2018
    Lara CODECA

    This program is free software: you can redistribute it and/or modify
    it under the terms of the GNU General Public License as published by
    the Free Software Foundation, either version 3 of the License, or
    (at your option) any later version.

    This program is distributed in the hope that it will be useful,
    but WITHOUT ANY WARRANTY; without even the implied warranty of
    MERCHANTABILITY or FITNESS FOR A PARTICULAR PURPOSE.  See the
    GNU General Public License for more details.

    You should have received a copy of the GNU General Public License
    along with this program.  If not, see <http://www.gnu.org/licenses/>.
-->

<routes xmlns:xsi="http://www.w3.org/2001/XMLSchema-instance" xsi:noNamespaceSchemaLocation="http://sumo.dlr.de/xsd/routes_file.xsd">
    <vehicle id="bicycle_1_117" type="bicycle" depart="18015.00" departLane="best">
        <route edges="-1502#2 -1502#1 1146 815#2 828#1 913#4 904 219 -823#2 -823#1 -1415#0 454#0 454#1 15#2 15#3 15#4 15#5 748#0 748#2 889#3 889#4 706 745#0 745#1 745#2 745#3 745#4 743#0 743#1 743#2 743#3 758#0 293#1 293#2 -711#1 -711#0 -693#1 -693#0 890#7 890#8 -752#1 -752#0 -1491#3 -1491#2 -1491#1 -1491#0 -899#1 -899#0 874#0 874#1"/>
    </vehicle>
    <vehicle id="bicycle_1_615" type="bicycle" depart="18220.00" departLane="best">
        <route edges="580#2 580#3 580#4 596#3 1492 604#0 604#1 604#2 604#3 604#4 594#0 594#1 594#2 593#4 593#5 593#6 593#7 593#8 593#9 593#10 593#11 530#1 530#2 530#3 116 361 362#1 -505#4 -505#3 -505#2 -513#2 -513#1 -512 -187 517 -115 -871#4 -871#3 -871#2 -871#1 -871#0"/>
    </vehicle>
    <vehicle id="bicycle_1_144" type="bicycle" depart="18230.00" departLane="best">
        <route edges="873#1 -741#11 -875#2 -734"/>
    </vehicle>
    <vehicle id="bicycle_1_874" type="bicycle" depart="18422.00" departLane="best">
        <route edges="763#4 763#5 763#6 741#3 741#4 741#5 741#6 741#7 741#8 741#9 741#10 741#11 686 123 712#0 746 874#2 127 628#0 694#0 694#1 694#2 694#3 643 591 -702#2 -599#2 -599#1 -575#0 -604#5 -604#4 -604#3 -604#2 -604#1 -604#0 597 580#1 580#2 450#0 450#2 450#4 450#5 450#6 450#7 450#8 450#9 371#3 371#4 -251#1 -251#0"/>
    </vehicle>
    <vehicle id="bicycle_1_152" type="bicycle" depart="18519.00" departLane="best">
        <route edges="584#1 451#8 580#4 596#3 1492 604#0 604#1 604#2 604#3 604#4 604#5 575#0 599#1 599#2 -702#0 737#0 737#1"/>
    </vehicle>
    <vehicle id="bicycle_1_532" type="bicycle" depart="18567.00" departLane="best">
        <route edges="1190#1 636#1 620#0 620#1 -405#5 -405#3 -405#2 -405#1 -405#0 628#5 630 631 593#1 593#2 593#3 593#4 593#5 593#6 593#7 593#8 593#9 593#10 593#11 1558 268#0 268#1 268#2 -532#1 -532#0 -117 510#0 510#1 510#2 506#0 -498 -502#0 -112 -510#3 -510#2"/>
    </vehicle>
    <vehicle id="bicycle_1_437" type="bicycle" depart="18664.00" departLane="best">
        <route edges="943#1 574#1 574#2 574#3 574#4 574#5 1345#0 1345#1 1345#2 606 605 458 572#0 573#0 573#1 573#2 573#3 573#4 573#5 573#6 -427#1 -531#9 -531#8 -531#7 -531#6 -531#5 -531#4 -531#3 -531#2 -542 -535#0 -530#2 -530#1"/>
    </vehicle>
    <vehicle id="bicycle_2_75" type="bicycle" depart="18712.00" departLane="best">
        <route edges="560 -1430#8 -1430#7 -1430#6 1326#0 1326#1 1326#2 -553#1 -553#0 -1323#5 -1323#4 -1323#3 -1323#2 -1323#1 -1323#0 148 1325 1434 211 955#0 955#1 955#2 955#3 1313#1 1313#2 1313#3 1313#4 1313#5 1313#6 1313#7 1313#8 1313#9 1313#10 1313#11 1313#12 1313#13 1313#14 861#1 861#2 861#3 -1338#1 -1338#0 1352#0 1352#1 1352#3 1352#4 1352#5 1352#6 1352#7 1352#8 1352#9 1352#10 1352#11 1352#12 1352#13 1352#14 1352#15 1352#16 929 -1497#3 -1499 -1352#16 -1352#15"/>
    </vehicle>
    <vehicle id="bicycle_1_53" type="bicycle" depart="18713.00" departLane="best">
        <route edges="362#2 362#3 362#4 -361 -116 -530#3 -530#2 -530#1 -530#0 -593#10 -593#9 -593#8 -593#7 -593#6 -593#5 -593#4 641#1 641#2 641#3 -628#5 -628#4 -628#3 -628#2 -628#1 -628#0 122 873#0"/>
    </vehicle>
    <vehicle id="bicycle_2_170" type="bicycle" depart="19000.00" departLane="best">
        <route edges="-273 -1343#3 -1343#2 -1343#1 1497#0 1497#1 1497#2 1497#3 931 633#0 633#1 633#2 633#3 628#3 628#4 628#5 630 632#0 632#1 605 458 572#0 573#0 573#1 573#2 573#3 573#4 573#5 573#6 -427#1 -531#9 -531#8 -531#7 -866#4 -866#3 -866#2 -866#1 -866#0 871#0 871#1 871#2 871#3"/>
    </vehicle>
    <vehicle id="bicycle_1_153" type="bicycle" depart="19038.00" departLane="best">
        <route edges="798#5 -204 -827#2 -827#1 -827#0 867#0"/>
    </vehicle>
    <vehicle id="bicycle_2_134" type="bicycle" depart="19087.00" departLane="best">
        <route edges="1374#1 -678#2 284#0 284#1 -1374#0 1390#6 1390#7 1372#1 661#0 -663#2 -663#1 -663#0 1330#0 1330#1 1505#0 1505#1 1505#2 1331 1326#1 1326#2 -553#1 -553#0 -1323#5 -1323#4 -1323#3 -1323#2 -1323#1 -1323#0 148 1325 1434 211 955#0 955#1 955#2 955#3 1313#1 1313#2 1313#3 1313#4 1313#5 1313#6 1313#7 1313#8 1313#9 1313#10 1313#11 1313#12 1313#13 1313#14 861#1 861#2 861#3 -1338#1 -1338#0 574#0 574#1 574#2 574#3 574#4 574#5 1345#0 1345#1 1345#2 606 641#2 641#3 -628#5 -628#4 -628#3 -628#2 -628#1 -628#0 122 873#0 720 712#2 899#0 899#1 1491#0 1491#1 1491#2 1491#3 752#0 752#1 890#11 889#1 889#2 889#3 -744#3 -744#2 -744#1 -744#0 -703 690 -699 -700 701 726 730 -733 -715 -796 -791 -797 -805 -808#1 -808#0 -872"/>
    </vehicle>
    <vehicle id="bicycle_2_195" type="bicycle" depart="19122.00" departLane="best">
        <route edges="1388#3 1388#4 1388#5 1388#6 1388#7 1388#8 1388#9 1388#10 1166#0 1166#1 -644#0 -1259#6 -1259#5 -1259#4 -1259#3 -1259#2 -1259#1 -1259#0 1505#2 1331 1326#1 1326#2 -553#1 -553#0 -1323#5 -1323#4 -1323#3 -1323#2 -1323#1 -1323#0 148 1325 1434 211 955#0 955#1 955#2 955#3 1313#1 1313#2 1313#3 1313#4 1313#5 1313#6 1313#7 1313#8 1313#9 1313#10 1313#11 1313#12 1313#13 1313#14 861#1 861#2 861#3 -1338#1 -1338#0 574#0 574#1 574#2 574#3 574#4 574#5 1345#0 1345#1 1345#2 606 641#2 641#3 -628#5 -628#4 -628#3 -628#2 -628#1 -628#0 122 873#0 720 712#2 899#0 899#1 899#2 899#3 899#4 899#5 918#0 918#1 759#0"/>
    </vehicle>
    <vehicle id="bicycle_1_629" type="bicycle" depart="19164.00" departLane="best">
        <route edges="510#2 510#3 113 502#0 502#1 252 501#1 -110 1317#0 1317#1 1317#2 1315 114 508#1 254 505#0 505#1 505#2 505#3 505#4 362#2 540#0 540#1 540#2 -223 -895#1 -895#0 866#0 866#1 866#2 866#3 866#4 -531#6"/>
    </vehicle>
    <vehicle id="bicycle_2_182" type="bicycle" depart="19276.00" departLane="best">
        <route edges="-1354#2 -1354#1 -1354#0 1352#14 1352#15 1352#16 929 931 633#0 633#1 633#2 633#3 628#3 628#4 628#5 630 631 593#1 593#2 593#3 593#4"/>
    </vehicle>
    <vehicle id="bicycle_1_648" type="bicycle" depart="19408.00" departLane="best">
        <route edges="737#2 868#2 868#3 868#4 868#0 868#1 -737#2 -737#1 -737#0 702#0 -287 591 -702#2 -702#0 737#0 737#1"/>
    </vehicle>
    <vehicle id="bicycle_1_14" type="bicycle" depart="19459.00" departLane="best">
        <route edges="-303#1 -303#0 -801#1 -801#0 914 913#3 913#4 904 219 -823#2 -823#1 -1415#0 454#0 454#1 15#2 15#3 15#4 15#5 748#0 748#2 889#3 889#4 706 745#0 745#1 745#2 745#3 745#4 743#0 743#1 743#2 743#3 743#4 743#5 868#0 868#1 -737#2 -737#1 -737#0 702#0 -599#2 -599#1 -575#0 -575#2"/>
    </vehicle>
    <vehicle id="bicycle_1_878" type="bicycle" depart="19500.00" departLane="best">
        <route edges="694#0 694#1 694#2 -466 -869#2 -869#1 -869#0 121 731 737#1 737#2 868#2 868#3 747 890#1 890#2 890#3 890#4 890#5 890#6 890#7 890#8 890#11 889#1 889#2 -748#2 -748#0 15#6 15#7"/>
    </vehicle>
    <vehicle id="bicycle_1_401" type="bicycle" depart="19565.00" departLane="best">
        <route edges="719#1 -759#0 -918#1 -918#0 -899#5 -899#4 -899#3 -899#2 -899#1 -899#0 874#0 874#1 874#2 127 628#0 628#1 628#2 628#3 628#4 628#5 630 631 593#1 593#2 593#3 593#4 593#5 593#6 593#7 593#8 593#9 593#10 593#11 1558 268#0 268#1 268#2 -532#1 -532#0 -117 510#0 510#1 510#2 506#0 -498 -502#0 -112 -510#3 -510#2 -510#1 -510#0"/>
    </vehicle>
    <vehicle id="bicycle_1_163" type="bicycle" depart="19721.00" departLane="best">
        <route edges="-759#6 -759#5 -759#4 750#0 750#1 750#2 750#3 719#0 719#1 759#1 759#2 759#3 759#4 759#5 759#6 798#4 798#5 -204 -827#2 -827#1 -827#0 309#0 -940#7 -940#6 -940#5 -940#4 -940#3 -940#2 -940#1 -940#0 -1415#9 -1415#8 -1415#7 -1415#6 -1415#5 -1415#3 -1415#2 -1415#1 -823#0"/>
    </vehicle>
    <vehicle id="bicycle_1_13" type="bicycle" depart="19771.00" departLane="best">
        <route edges="371#0 371#1 451#0 451#1 451#2 451#3 451#4 451#6 451#8 581 595#0 596#0"/>
    </vehicle>
    <vehicle id="bicycle_1_146" type="bicycle" depart="19803.00" departLane="best">
        <route edges="1186#0 1186#1 1186#2"/>
    </vehicle>
    <vehicle id="bicycle_2_16" type="bicycle" depart="19818.00" departLane="best">
        <route edges="-618 -1354#3"/>
    </vehicle>
    <vehicle id="bicycle_1_527" type="bicycle" depart="19894.00" departLane="best">
        <route edges="296 294 743#1 743#2 743#3 743#4 743#5 868#0 868#1 -737#2 -737#1 -731 -121 869#0 869#1 869#2 466 -694#2 -707 -633#3 -633#2 -633#1 -633#0 -931 -1497#3 -1497#2 -1497#1 -1497#0 1343#1 1343#2 1343#3 1343#4 1343#5 1343#6 1343#7 1343#8 935#1 1266 1376 739#5"/>
    </vehicle>
    <vehicle id="bicycle_1_263" type="bicycle" depart="19931.00" departLane="best">
        <route edges="510#0 510#1 510#2 506#0 -498 -502#0 -112 -510#3 -510#2 -510#1 -510#0 117 532#0 532#1 268#3 268#0 590#0 590#1 590#2 590#3 590#4 590#5 590#6 594#2 641#1 641#2 641#3 -628#5 -628#4 -628#3 -633#3 -633#2 -633#1 -633#0 -931 -1497#3 -1497#2 -1497#1 -1497#0 1343#1 1343#2 1343#3 1343#4 1343#5 1343#6 1343#7 1343#8 1384#0 1384#1 1380#0 1382 739#1"/>
    </vehicle>
    <vehicle id="bicycle_1_345" type="bicycle" depart="19963.00" departLane="best">
        <route edges="510#2 506#0 -498 -502#0 -112 -510#3 -510#2 -510#1 -510#0 117 532#0 532#1 268#3 268#0 590#0 590#1 590#2 590#3 590#4 590#5 590#6 -594#1 -594#0 604#5 575#0 599#1 599#2 702#2 -591 -643 -694#3 -694#2 -694#1 -694#0 -628#0 122 873#0 873#1 -741#11 -875#2 -875#1 -875#0 1495#1 1495#2 798#0"/>
    </vehicle>
    <vehicle id="bicycle_2_139" type="bicycle" depart="20024.00" departLane="best">
        <route edges="-455#2 -455#1 -257#2 -522 955#2 955#3 1313#1 1313#2 1313#3 1313#4 1313#5 1313#6 1313#7 1313#8 1313#9 1313#10 1313#11 1313#12 1313#13 1313#14 861#1 861#2 861#3 -1338#1 -1338#0 574#0 574#1 574#2 574#3 574#4 574#5 1345#0 1345#1 1345#2 606 641#2 641#3 630 631 583#0 583#1 583#2 -604#5 -604#4 -604#3 -604#2 -604#1 -604#0 597 580#1 580#2 450#0 450#2 450#4 450#5 450#6 534 539 451#2 451#3"/>
    </vehicle>
    <vehicle id="bicycle_1_111" type="bicycle" depart="20073.00" departLane="best">
        <route edges="122 873#0 720 712#2 899#0 899#1 899#2 899#3 899#4 899#5 918#0 918#1 759#0 -719#1 -719#0 -750#3 -750#2"/>
    </vehicle>
    <vehicle id="bicycle_1_88" type="bicycle" depart="20126.00" departLane="best">
        <route edges="450#4 451#4 451#6 451#8 580#4 596#3 1492 604#0 604#1 604#2 604#3 604#4 604#5 575#0 599#1 599#2 702#2 -591 -643 -694#3 -694#2 -694#1 -694#0 -628#0 122 873#0 873#1 -741#11 -875#2 -875#1 -875#0 754#0 754#1 -899#0 874#0"/>
    </vehicle>
    <vehicle id="bicycle_1_331" type="bicycle" depart="20165.00" departLane="best">
        <route edges="-251#1 -251#0 371#4 371#5 371#0 371#1 451#0 451#1 451#2 451#3 451#4 451#6 451#8 580#4 596#3 1492 604#0 604#1 604#2 604#3 604#4 604#5 575#0 599#1 599#2 702#2 -591 -643 -694#3 -694#2 -694#1 -694#0 -628#0 122 873#0 873#1 -741#11 -875#2 -734 741#10 741#11"/>
    </vehicle>
    <vehicle id="bicycle_1_696" type="bicycle" depart="20213.00" departLane="best">
        <route edges="-899#3 -899#2 1491#0 1491#1 1491#2 1491#3 752#0 752#1 890#11 889#1 889#2 889#3 889#4"/>
    </vehicle>
    <vehicle id="bicycle_2_166" type="bicycle" depart="20314.00" departLane="best">
        <route edges="1326#5 1326#6 1359#0 1359#1 1359#2 -614 1194#0 -25 -26 -1359#2 -1359#1 -1359#0 -1326#6 -1326#5 -553#0 -1323#5 -1323#4 -1323#3 -1323#2 -1323#1 -1323#0 148 1325 1434 211 955#0 955#1 955#2 955#3 1313#1 1313#2 1313#3 1313#4 1313#5 1313#6 1313#7 1313#8 1313#9 1313#10 1313#11 1313#12 1313#13 1313#14 861#1 861#2 861#3 -1338#1 -1338#0 574#0 574#1 574#2 574#3 574#4 574#5 1345#0 1345#1 1345#2 606 641#2 641#3 -628#5 -628#4 -628#3 -628#2 -628#1 -628#0 122 873#0 873#1 -741#11 -875#2 -875#1 -875#0 1495#1 1495#2 798#0 798#1 798#2 798#3 798#4 798#5 -204 -827#2 -827#1 -827#0 309#0 -940#7 -940#6 -940#5 -940#4 -940#3 -940#2 -940#1 -940#0 -1415#9 -1415#8 -1415#7 -1415#6 -1415#5 -1415#3 -1415#2 -1415#1 823#1 823#2 -219 -904 913#0 913#1 -914 801#0 801#1 801#2 801#3 201 -571 305#2 305#3 785 -305#4 -305#3 -305#2"/>
    </vehicle>
    <vehicle id="bicycle_1_370" type="bicycle" depart="20408.00" departLane="best">
        <route edges="741#11 686 123 712#0 712#1 712#2 899#0 899#1 1491#0 1491#1 1491#2 1491#3 752#0 752#1 890#11 889#1 889#2 889#3 -744#3 -744#2 -744#1 -744#0 -703 788 790 789 -817 813 812 809 810"/>
    </vehicle>
    <vehicle id="bicycle_1_23" type="bicycle" depart="20416.00" departLane="best">
        <route edges="-1491#3 -1491#2 -1491#1 -1491#0 899#2 899#3 899#4 899#5 -722#1 735 889#2 889#3 -744#3 -744#2 -744#1 -744#0 -703 690 -699 -700 701 726 730 -793 -877 795 1228#0 1228#1 1228#2 -419 -794 817"/>
    </vehicle>
    <vehicle id="bicycle_1_156" type="bicycle" depart="20458.00" departLane="best">
        <route edges="720 712#2 899#0 -754#1 -754#0 1495#1 1495#2 798#0"/>
    </vehicle>
    <vehicle id="bicycle_1_103" type="bicycle" depart="20485.00" departLane="best">
        <route edges="751#1 15#7 15#0 15#1 15#2 15#3 15#4 15#5 748#0 748#2 889#3 889#4 706 745#0 745#1 745#2 745#3 745#4 743#0 743#1 743#2 743#3 758#0 293#1 293#2 -711#1 -711#0 -693#1 -693#0 890#7 890#8 -752#1 -752#0 -1491#3 -1491#2 -1491#1 -1491#0 -899#1 -754#1 -754#0 1495#1 1495#2 798#0 798#1 798#2 798#3 798#4 798#5 -204 -827#2 -827#1 -827#0 309#0 -940#7 -940#6 -940#5 -940#4 -940#3 -940#2 -940#1 -940#0 -1415#9 -1415#8 -1415#7 -1415#6 -1415#5 -1415#3 -1415#2 -1415#1 823#1 823#2 -219 -904 913#0 913#1 913#3 -828#1 -815#2 -815#1 -815#0 1503 906#2"/>
    </vehicle>
    <vehicle id="bicycle_1_475" type="bicycle" depart="20516.00" departLane="best">
        <route edges="-754#0 1495#1 1495#2 798#0 798#1 798#2 798#3 798#4 798#5 -204 -827#2 -827#1 -827#0 309#0 -940#7 -940#6 -940#5 -940#4 -940#3 -940#2 -940#1 -940#0 -1415#9 -1415#8 -1415#7 -1415#6 -1415#5 -1415#3 -1415#2 -1415#1 823#1 823#2 -219 -904 913#0 913#1 913#3 -828#1 -828#0 906#3 906#4 811#0 811#1 811#2 802#5 802#0 802#1 802#2 1586"/>
    </vehicle>
    <vehicle id="bicycle_1_344" type="bicycle" depart="20525.00" departLane="best">
        <route edges="758#1 732#1 710#0 710#1 -293#1 -758#0 743#4 743#5 868#0 868#1 -737#2 -737#1 -731 -121 869#0 869#1 869#2 466 -694#2 -707 -633#3 -633#2 -633#1 -633#0 -931 -929 -1352#16 -1352#15 -1352#14 -1352#13 -1352#12 -1352#11 -1352#10 -1352#9 -1352#8 -1352#7 -1352#6 -1352#5 -1352#4 -1352#3 -1352#1 -1352#0 1338#0 -928#8"/>
    </vehicle>
    <vehicle id="bicycle_1_296" type="bicycle" depart="20576.00" departLane="best">
        <route edges="1491#0 1491#1 1491#2 -723#1 -723#0 718#1 -899#0 874#0 874#1 874#2 127 628#0 694#0 694#1 694#2 694#3 643 591 -702#2 -599#2 -599#1 -575#0 -604#5 -604#4 -604#3 -604#2 -604#1 -604#0 597 580#1 580#2 450#0 450#2 450#4 450#5 450#6 450#7 450#8 450#9 371#3 371#4 -251#1 372"/>
    </vehicle>
    <vehicle id="bicycle_1_551" type="bicycle" depart="20616.00" departLane="best">
        <route edges="121 731 737#1 737#2 868#2 868#3 747 890#1 890#2 890#3 890#4 890#5 890#6 890#7 890#8 -752#1 -752#0 -1491#3 -1491#2 -1491#1 -1491#0 -899#1 -899#0"/>
    </vehicle>
    <vehicle id="bicycle_1_822" type="bicycle" depart="20788.00" departLane="best">
        <route edges="369#2 369#3 -896#1 -896#0 -814#0 906#4 906#1 906#2 828#0 828#1 913#4 904 219 -823#2 -823#1 -1415#0 454#0 454#1 15#2 15#3 15#4 15#5 748#0 748#2 889#3 -744#3 -744#2 -744#1 -744#0 -703 690 -699 -700 701 726 730 -733 1162#0 1162#1"/>
    </vehicle>
    <vehicle id="bicycle_1_670" type="bicycle" depart="20840.00" departLane="best">
        <route edges="-759#3 -759#2 -759#1 -719#1 -719#0 -750#3 -750#2 -750#1 -750#0 759#4 759#5 759#6 798#4 798#5 -204 -827#2 -827#1 -827#0 309#0 -940#7 -940#6 -940#5 -940#4 -940#3 -940#2 -940#1 -940#0 -1415#9 -1415#8 -1415#7 -1415#6 -1415#5 -1415#3 -1415#2 -1415#1 823#1 823#2 -219 -904 913#0 913#1 -914 801#0 801#1 801#2 304#0 304#1 -304#4 302 304#3 304#4 -304#1 -304#0 -801#2"/>
    </vehicle>
    <vehicle id="bicycle_2_64" type="bicycle" depart="20840.00" departLane="best">
        <route edges="-1263#1 -1263#0 -1354#1 -1354#0 1352#14 1352#15 1352#16 1499 1497#3 -929"/>
    </vehicle>
    <vehicle id="bicycle_1_426" type="bicycle" depart="20868.00" departLane="best">
        <route edges="1228#0 1179 -816 877 793 -730 -726 -701 700 699 -690 703 744#0 744#1 744#2 744#3 889#4 706 745#0 745#1 745#2 745#3 745#4 743#0 743#1 743#2 743#3 758#0 293#1 293#2 -711#1 -711#0 -693#1 -693#0 890#7 890#8 -752#1 -752#0 -1491#3 -1491#2 -1491#1 -1491#0 -899#1 -754#1 -754#0 1495#1 1495#2 798#0 798#1 798#2 798#3 798#4 798#5 -204 -827#2 -827#1 -827#0 309#0 309#2 827#0 827#1 827#2 204 -798#5"/>
    </vehicle>
    <vehicle id="bicycle_1_256" type="bicycle" depart="20883.00" departLane="best">
        <route edges="874#1 874#2 127 628#0 628#1 628#2 628#3 628#4 628#5 630 632#0 632#1 605 458 572#0 573#0 573#1 573#2 573#3 573#4 573#5 573#6 -427#1 -531#9 -531#8 -533"/>
    </vehicle>
    <vehicle id="bicycle_1_599" type="bicycle" depart="20888.00" departLane="best">
        <route edges="873#0 873#1 686 123 712#0 746 874#2 127 628#0 628#1 628#2 -633#3 -633#2 642 638#0 639 405#5 -620#1 -620#0"/>
    </vehicle>
    <vehicle id="bicycle_1_435" type="bicycle" depart="20903.00" departLane="best">
        <route edges="899#3 899#4 899#5 -722#1 735 889#2 889#3 889#4 706 745#0 745#1 745#2 745#3 745#4 743#0 743#1 743#2 743#3 743#4 743#5 868#0 868#1 -737#2 -737#1 -737#0 702#0 702#2 702#3 702#4 702#5 -629#1 -629#0 593#1 593#2 593#3 593#4 593#5 593#6 593#7 593#8 593#9 593#10 593#11 530#1 530#2 530#3 116 361 362#1 -505#4 -505#3 -505#2 -505#1 -253 505#2 505#3"/>
    </vehicle>
    <vehicle id="bicycle_1_965" type="bicycle" depart="20909.00" departLane="best">
        <route edges="719#0 719#1 -759#0 -918#1 -918#0 -899#5 -899#4 -899#3 -899#2 -899#1 -899#0 874#0 874#1 874#2 127 628#0 628#1 628#2 628#3 628#4 628#5 630 632#0 632#1 641#2 -611"/>
    </vehicle>
    <vehicle id="bicycle_1_119" type="bicycle" depart="20933.00" departLane="best">
        <route edges="251#1 371#5 371#0 371#1 451#0 451#1 451#2 451#3 451#4 451#6 451#8 580#4 596#3 1492 604#0 604#1 604#2 604#3 604#4 604#5 575#0 599#1 599#2 702#2 -591 -643 -694#3 -694#2 -694#1 -694#0 -628#0 -380#1"/>
    </vehicle>
    <vehicle id="bicycle_2_162" type="bicycle" depart="20936.00" departLane="best">
        <route edges="1414#2 1411#3 1409 942#0 850 -847#0 -1415#21 -1415#20 -1415#19 -1415#18 -1415#17 -1415#16 -1415#13 -1415#12 -1415#11 -1415#10 940#0 940#1 940#2 940#3 940#4 940#5 940#6 940#7 309#2 827#0 827#1 827#2 204 -798#5 -798#4 -798#3 -798#2 -798#1 -798#0 1495#3 875#0 875#1 875#2 741#11 686 123 712#0 746 874#2 127 628#0 628#1 628#2 628#3 628#4 628#5 630 632#0 632#1 605 458 572#0 572#1 572#2 1335#0 1335#1 1335#2 1335#3 1335#4 943#0 943#1 574#1"/>
    </vehicle>
    <vehicle id="bicycle_1_738" type="bicycle" depart="20944.00" departLane="best">
        <route edges="596#3 1492 604#0 604#1 604#2 604#3 604#4 604#5 575#0 599#1 599#2 702#2 -591 -643 -694#3 -694#2 -694#1 -694#0 -628#0 122 873#0 873#1 -741#11 -875#2 -875#1 -875#0 1495#1 1495#2 798#0 798#1 798#2"/>
    </vehicle>
    <vehicle id="bicycle_1_729" type="bicycle" depart="20949.00" departLane="best">
        <route edges="268#3 268#0 268#1 268#2 -532#1 -532#0 -117 510#0 510#1 510#2 510#3 113 502#0 502#1 252 501#1 -110 1317#0 1317#1 1317#2 1315 114 508#1 254 505#0 505#1 -513#2 -513#1 -513#0"/>
    </vehicle>
    <vehicle id="bicycle_1_465" type="bicycle" depart="20950.00" departLane="best">
        <route edges="750#3 719#0 719#1 -759#0 -918#1 -918#0 -722#1 735 889#2 889#3 889#4 706 745#0 745#1 745#2 745#3 295#0"/>
    </vehicle>
    <vehicle id="bicycle_1_998" type="bicycle" depart="20967.00" departLane="best">
        <route edges="-364#0 -363 895#1 223 -540#2 -540#1 -540#0 362#3 362#4 -361 -116 -530#3 -530#2 -530#1 -530#0 -593#10 -593#9 -593#8 -593#7 -593#6 -593#5 -593#4 641#1 641#2 641#3 -628#5 -628#4 -628#3 -628#2 -628#1 -628#0 122 873#0 720 712#2 899#0 -718#1 723#0 723#1 -1491#2"/>
    </vehicle>
    <vehicle id="bicycle_1_318" type="bicycle" depart="20979.00" departLane="best">
        <route edges="450#9 371#3 371#4 371#5 371#0 371#1 451#0 451#1 451#2 451#3 451#4 451#6 451#8 580#4 596#3 1492 604#0 604#1 604#2 604#3 604#4 604#5 575#0 599#1 599#2 702#2 -591 -643 -694#3 -694#2 -694#1 -694#0 -628#0 122 873#0 873#1 -741#11 -875#2 -875#1 -875#0 754#0"/>
    </vehicle>
    <vehicle id="bicycle_1_901" type="bicycle" depart="20985.00" departLane="best">
        <route edges="364#0 364#1 -363 895#1 223 -540#2 -540#1 -540#0 362#3 362#4 -361 -116 -530#3 -530#2 -530#1 -530#0 -593#10 -593#9 -593#8 -593#7 -593#6 -593#5 -593#4 641#1 641#2 641#3 -628#5 -628#4 -628#3 -628#2 -628#1 -628#0 122 873#0"/>
    </vehicle>
    <vehicle id="bicycle_2_156" type="bicycle" depart="20992.00" departLane="best">
        <route edges="-427#1 -531#9 -531#8 -531#7 -531#6 -531#5 -531#4 -531#3 -531#2 -542 -535#0 -530#2 -530#1 -530#0 -593#10 -593#9 -593#8 -593#7 -593#6 -593#5 -593#4 -593#3 -593#2 -593#1 629#0 -615#2 -615#1"/>
    </vehicle>
    <vehicle id="bicycle_1_6" type="bicycle" depart="21006.00" departLane="best">
        <route edges="-702#4 -702#3 -702#2 -702#0 737#0 737#1 737#2 868#2 868#3 747 890#1 890#2 890#3 890#4 890#5 890#6 890#7 890#8 890#11 889#1 889#2 889#3 -744#3 -744#2 -744#1 -744#0 -703 690 687 -701"/>
    </vehicle>
    <vehicle id="bicycle_1_521" type="bicycle" depart="21012.00" departLane="best">
        <route edges="532#1 268#3 268#0 268#1 -595#1 596#0 596#1 596#2 596#3 580#0 580#1 580#2 450#0 450#2 450#4 450#5 450#6 450#7 450#8 450#9 371#3 371#4 371#5 255#0 -365#2 -365#1"/>
    </vehicle>
    <vehicle id="bicycle_1_177" type="bicycle" depart="21033.00" departLane="best">
        <route edges="712#1 712#2 899#0 -754#1 -754#0 1495#1 -709 -728 -741#8 -741#7 -741#6 -741#5 -741#4 -741#3 -763#6 -763#5 -757#2 -757#1 -757#0 -1380#1 1382 739#1 739#2 739#3"/>
    </vehicle>
    <vehicle id="bicycle_1_313" type="bicycle" depart="21042.00" departLane="best">
        <route edges="-741#4 -741#3 -763#6 -763#5 -757#2 -757#1 -757#0 -1380#1 -1380#0 -1384#1 -1384#0 935#1 936 -901#5 1378#0 1378#1 1378#2 -380#0"/>
    </vehicle>
    <vehicle id="bicycle_1_349" type="bicycle" depart="21069.00" departLane="best">
        <route edges="1225 1159#1 1227#1 1157#6 -304#0 -801#2 -801#1 -801#0 914 913#3 913#4 904 219 -823#2 -823#1 -1415#0 454#0 454#1 15#2 15#3 15#4 15#5 748#0 748#2 889#3 889#4 706 745#0 745#1 745#2 745#3 745#4 743#0 743#1 743#2 743#3 758#0 293#1 293#2 -711#1 -711#0 -693#1 -693#0 890#7 890#8 -752#1 -752#0 -1491#3 -1491#2 -1491#1 -1491#0 -899#1 -899#0 874#0"/>
    </vehicle>
    <vehicle id="bicycle_1_705" type="bicycle" depart="21069.00" departLane="best">
        <route edges="573#6 259#0 259#1 -578#0 -593#10 -593#9 -593#8 -593#7 -593#6 -593#5 -593#4 641#1 641#2 641#3 -628#5 -628#4 -628#3 -628#2 -628#1 -628#0 122 873#0 873#1 686 123 712#0 712#1"/>
    </vehicle>
    <vehicle id="bicycle_2_125" type="bicycle" depart="21136.00" departLane="best">
        <route edges="928#8 -1338#0 574#0 574#1 574#2 574#3 574#4 574#5 1345#0 1345#1 1345#2 606 605 458 572#0 1181#0 1181#1 1181#2 585 600 579 593#9 593#10 593#11 530#1 530#2 530#3 116 361 362#1 -505#4 -505#3"/>
    </vehicle>
    <vehicle id="bicycle_1_737" type="bicycle" depart="21149.00" departLane="best">
        <route edges="1157#2 1157#3 1157#4 1157#5 1157#6 -304#0 -801#2 -801#1 -801#0 914 913#3 913#4 904 219 -823#2 -823#1 1415#1 1415#2 1415#3 1415#5 1415#6 1415#7 1415#8 1415#9 940#0 940#1 940#2 940#3 940#4 940#5 940#6 940#7 309#2 867#0 867#1 867#2"/>
    </vehicle>
    <vehicle id="bicycle_1_249" type="bicycle" depart="21164.00" departLane="best">
        <route edges="734 875#2 741#11 686 123 712#0 746 874#2 127 628#0 628#1 628#2 -633#3 -633#2 642 638#0 639 405#5 620#2 -612#0 621#1"/>
    </vehicle>
    <vehicle id="bicycle_1_9" type="bicycle" depart="21171.00" departLane="best">
        <route edges="759#6 798#4 798#5 -204 -827#2 -827#1 -827#0 309#0 -940#7 -940#6 -940#5 -940#4 -940#3 -940#2 -940#1 -940#0 -1415#9 -1415#8 -1415#7 -1415#6 -1415#5 -1415#3 -1415#2 -1415#1 823#1 823#2 -219 -904 913#0 913#1 913#3 -828#1 -828#0 906#3 906#4 811#0"/>
    </vehicle>
    <vehicle id="bicycle_1_202" type="bicycle" depart="21179.00" departLane="best">
        <route edges="-531#0 362#4 -361 -116 -530#3 -530#2 -530#1 -530#0 -593#10 -593#9 -593#8 -593#7 -593#6 -593#5 -593#4 641#1 641#2 641#3 -628#5 -628#4 -628#3 -628#2 -628#1 -628#0 122 873#0 873#1 -741#11 -875#2 -875#1 -875#0 754#0 754#1"/>
    </vehicle>
    <vehicle id="bicycle_1_831" type="bicycle" depart="21201.00" departLane="best">
        <route edges="741#3 741#4 741#5 741#6 741#7 741#8 728 709 1495#2 1495#3 875#0"/>
    </vehicle>
    <vehicle id="bicycle_1_934" type="bicycle" depart="21242.00" departLane="best">
        <route edges="535#1 -531#0 362#4 -361 -116 -530#3 -530#2 -530#1 -530#0 -593#10 -593#9 -593#8 -593#7 -593#6 -593#5 -593#4 -593#3 -593#2 -593#1 629#0 629#1 -702#5 -702#4 -702#3 -702#2 -702#0 737#0 737#1 737#2 868#2 868#3 747 890#1 890#2 890#3 890#4 890#5 890#6 890#7 890#8 890#11 889#1 889#2 -748#2 753"/>
    </vehicle>
    <vehicle id="bicycle_1_835" type="bicycle" depart="21269.00" departLane="best">
        <route edges="-629#1 -615#2 -615#1 -615#0 -575#0 -604#5 -604#4 -604#3 -604#2 -604#1 -604#0 597 580#1 580#2 450#0 450#2 450#4 450#5 450#6 450#7 450#8 450#9 371#3 371#4 -251#1"/>
    </vehicle>
    <vehicle id="bicycle_1_876" type="bicycle" depart="21296.00" departLane="best">
        <route edges="1491#3 752#0 752#1 890#11 889#1 889#2 889#3 889#4 706 745#0 745#1 745#2 745#3 745#4 743#0 743#1 743#2 743#3 743#4 743#5 868#0 868#1 -737#2 -737#1 -737#0 702#0 -599#2 -599#1 -575#0 -604#5 594#0 594#1 -590#6 -590#5 -590#4 -590#3 -590#2 -590#1 -590#0 268#1 -595#1 -595#0"/>
    </vehicle>
    <vehicle id="bicycle_1_769" type="bicycle" depart="21311.00" departLane="best">
        <route edges="531#3 531#4 531#5 531#6 531#7 531#8 531#9 427#1 -573#6 -573#5 -573#4 -573#3 -573#2 -573#1 -573#0 572#1 572#2 1344#0 1344#1 1344#2 1344#3 1345#0 1345#1 1345#2 606 641#2 641#3 -628#5 -628#4 -628#3 -628#2 -628#1 -628#0 122 873#0 720 712#2 899#0 899#1 1491#0 1491#1 1491#2"/>
    </vehicle>
    <vehicle id="bicycle_1_11" type="bicycle" depart="21331.00" departLane="best">
        <route edges="-753 748#2 889#3 889#4 706 745#0 745#1 745#2 745#3 745#4 296 716#0 716#1 716#2 -378 -716#3 -716#2"/>
    </vehicle>
    <vehicle id="bicycle_2_38" type="bicycle" depart="21345.00" departLane="best">
        <route edges="1591 -1415#3 -1415#2 -1415#1 823#1 823#2 -219 -904 913#0 913#1 -914 801#0 801#1 801#2 801#3 201 -571 305#2 1223#0 1223#1 1223#2 1156#1 1156#2 1156#3"/>
    </vehicle>
    <vehicle id="bicycle_2_214" type="bicycle" depart="21419.00" departLane="best">
        <route edges="-1413 1409 942#0 850 -847#0 -1415#21 -1415#20 -1415#19 -1415#18 -1415#17 -1415#16 -1415#13 -1415#12 -1415#11 -1415#10 -1415#9 -1415#8 -1415#7 -1415#6 -1415#5 -1415#3 -1415#2 -1415#1 -1415#0 454#0 454#1 15#2 15#3 15#4 15#5 748#0 748#2 889#3 889#4 706 745#0 745#1 745#2 745#3 745#4 743#0 743#1 743#2 743#3 743#4 743#5 868#0 714#0 714#1 714#2 689 192 588 576 580#2 450#0 450#2 450#4 450#5 450#6 450#7 450#8 450#9 371#3 371#4 371#5 255#0 255#2 255#3 -109"/>
    </vehicle>
    <vehicle id="bicycle_2_225" type="bicycle" depart="21470.00" departLane="best">
        <route edges="-363 895#1 223 -540#2 -540#1 -540#0 362#3 362#4 -361 -116 -530#3 -530#2 -530#1 -530#0 -593#10 -593#9 -593#8 -593#7 -593#6 -593#5 -593#4 -593#3 -593#2 -593#1 629#0 629#1 -702#5 -702#4 -702#3 -702#2 -702#0 737#0 737#1 737#2 868#2 868#3 747 890#1 890#2 890#3 890#4 890#5 890#6 890#7 890#8 890#11 889#1 889#2 889#3 -744#3 -744#2 -744#1 -744#0 -703 690 -699 -700 701 726"/>
    </vehicle>
    <vehicle id="bicycle_1_126" type="bicycle" depart="21509.00" departLane="best">
        <route edges="122 873#0 873#1 -741#11 -741#10 -741#9 -741#8 -741#7 -741#6 -741#5 -741#4 -741#3 -763#6 -763#5 -763#4 -763#3 298 763#2"/>
    </vehicle>
    <vehicle id="bicycle_2_9" type="bicycle" depart="21514.00" departLane="best">
        <route edges="901#3 901#4 1378#0 1378#1 1378#2 380#1 628#0 628#1 628#2 628#3 628#4 628#5 630 631 593#1 593#2 593#3 593#4 593#5 593#6 593#7 593#8 593#9 593#10 578#0 578#1"/>
    </vehicle>
    <vehicle id="bicycle_1_468" type="bicycle" depart="21522.00" departLane="best">
        <route edges="1491#3 752#0 752#1 -1205#2 -1205#1 -13#1 -13#0 -695 -12 1205#0 1205#1 1205#2 -752#1 -752#0 -1491#3 -1491#2 -1491#1 -1491#0 899#2 899#3 899#4 899#5 918#0 918#1 759#0 759#1 759#2 759#3 759#4 759#5 759#6 -798#3 -798#2"/>
    </vehicle>
    <vehicle id="bicycle_1_905" type="bicycle" depart="21548.00" departLane="best">
        <route edges="796 864 733 -730 -726 -701 700 699 -690 703 744#0 744#1 744#2 744#3 889#4 706 745#0 745#1 745#2 745#3 745#4 743#0 743#1 743#2 743#3 743#4 743#5 868#0 868#1 -737#2 -737#1 -737#0 702#0 -599#2 -599#1 -575#0 -604#5 594#0 594#1 -590#6 -590#5 -590#4 -590#3 -590#2 -590#1 -590#0 268#1 268#2 -532#1 -532#0"/>
    </vehicle>
    <vehicle id="bicycle_1_168" type="bicycle" depart="21564.00" departLane="best">
        <route edges="380#0 380#1 628#0 694#0 694#1 694#2 694#3 643 591 -702#2 -599#2 -599#1 -575#0 -604#5 -604#4"/>
    </vehicle>
    <vehicle id="bicycle_1_280" type="bicycle" depart="21566.00" departLane="best">