<?xml version="1.0" encoding="UTF-8"?>

<!--
    Monaco SUMO Traffic (MoST) Scenario
    Copyright (C) 2019
    Lara CODECA

    This program is free software: you can redistribute it and/or modify
    it under the terms of the GNU General Public License as published by
    the Free Software Foundation, either version 3 of the License, or
    (at your option) any later version.

    This program is distributed in the hope that it will be useful,
    but WITHOUT ANY WARRANTY; without even the implied warranty of
    MERCHANTABILITY or FITNESS FOR A PARTICULAR PURPOSE.  See the
    GNU General Public License for more details.

    You should have received a copy of the GNU General Public License
    along with this program.  If not, see <http://www.gnu.org/licenses/>.
-->

<routes xmlns:xsi="http://www.w3.org/2001/XMLSchema-instance" xsi:noNamespaceSchemaLocation="http://sumo.dlr.de/xsd/routes_file.xsd">
    <vehicle id="commercial_1-1_433" type="commercial" depart="18016" departLane="best" arrivalPos="random">
        <route edges="-152350#0 152349#3 152349#4 152349#1 152349#2 152350#0 152350#1 -152648#0 -152663#10 -152663#9 -152663#8 -152663#7 -152663#6 -152663#5 -152663#4 152710 152170#0 152170#1 -152697#5 -152697#4 -152697#3 -152697#2 -152697#1 -152697#0 152225 152939#0 152939#1 -152810#11 -152941#2 -152803 152810#10"/>
    </vehicle>
    <vehicle id="commercial_3-1_340" type="commercial" depart="18026" departLane="best" arrivalPos="random">
        <route edges="-153455#0 -152252 153456 -153456 152252 153455#0 153455#1 153454#1 153001#0 153001#1 152231 153334 153637 152326#0 152326#1 152326#2 152326#3 152326#4 152326#5 152162 152164#0 152164#1 152395#1 152395#2 152897#0 152897#1 152984 152810#0 152810#1 152810#2 152810#3 152810#4 152810#5 152810#6 152810#7 152810#8 152810#9 152810#10 152810#11 152755 152226 152781#0 152815 152940#2 152230 152697#0 152697#1 152697#2 -152702#3 -152704#1 -152704#0"/>
    </vehicle>
    <vehicle id="commercial_1-1_395" type="commercial" depart="18033" departLane="best" arrivalPos="random">
        <route edges="152601#1 152601#2 152598 152603 152359#3 152359#0 152359#1 -152665#1 -152665#0 -152222 -152286 -152757 -152287 -152796 -152288 -152790 152289 152381 -152202 152457 152307 152308#2 -152305 152314#1 152313 -152894#2 -152894#1 -152894#0 153556 152971#2 152971#3 152882#0 152962#0 152962#1 152454#1 152454#2 152454#3 -152447"/>
    </vehicle>
    <vehicle id="commercial_GW2-1_241" type="commercial" depart="18033" departLane="best" arrivalPos="random">
        <route edges="153448#0 153448#1 153448#2 153447#1 153447#2 153447#3 153447#4 153447#5 153447#6 153447#7 153429#1 152730#0 -152732#2 -152732#1 -152732#0 153387#0 153387#1 -153388#0 153323#0 153323#1 153323#2 153323#3 153323#4 153323#5 153323#6 153323#7 153323#8 153323#9 153323#11 153323#12 -153331#7 -153331#6 -153331#5 -153331#4 -153331#3 -153333 153333 153331#3"/>
    </vehicle>
    <vehicle id="commercial_GW1-1_218" type="commercial" depart="18057" departLane="best" arrivalPos="random">
        <route edges="153474 152300 152923 152253 153473#0 153473#1 152298 153338 152299 -153472#26 -153472#25 -153472#24 -153472#23 -153472#22 -153472#20 -153472#19 -153472#18 -153472#17 -153472#16 -153472#15 -153472#14 -153472#13 -153472#12 -153472#11 -153472#10 -153472#9 -153472#8 -153472#7 -153472#6 -153472#5 -153472#3 -153472#2 -153472#1 -153472#0 152534#0 152534#1 152133#2 152133#3 152133#4 152133#5 152817#0 152822 152814#2 152814#3 152385 152785#0 152785#1 152824 152793#1"/>
    </vehicle>
    <vehicle id="commercial_3-1_313" type="commercial" depart="18058" departLane="best" arrivalPos="random">
        <route edges="153432 -152249 -153391 -152248 -152409#3 -152409#2 -152409#1 -152409#0 152408 152440#1 -153431#3 -153431#2 -153431#1 -153431#0 153447#6 153447#7 153429#1 152730#0 -152732#2 -152732#1 -152732#0 153387#0 153387#1 153388#1 153383#1 153383#2 -152624#1 -152624#0 -153380#1 -153380#0 -152173 -152172#2 -152172#1 -152172#0 -153379#0 -152246 -153381#1 -153381#0 -152247 -153408#5 -153325#5 -153325#4 -153325#3 -153325#2 -153325#1 -153325#0 152929#3 -153395#1 -153395#0 152645#0 152645#1 152645#2 152645#3 152645#4 152645#5 153402#0 153402#1 153402#2 152675 152674 152538 152643#0 152644#0 152644#1 152644#2"/>
    </vehicle>
    <vehicle id="commercial_3-1_287" type="commercial" depart="18060" departLane="best" arrivalPos="random">
        <route edges="153455#1 153454#1 153001#0 153001#1 152231 153334 153637 152326#0 152326#1 152326#2 152326#3 152326#4 152326#5 152162 -153002#3 -153002#2 -153002#1 -153002#0 152895#2 -152866#4 -152828#6 -152828#5 -152828#4 -152828#3 -152828#2 -152828#1 -152788#1"/>
    </vehicle>
    <vehicle id="commercial_1-1_603" type="commercial" depart="18061" departLane="best" arrivalPos="random">
        <route edges="152459#0 152459#1 152956#4 -152827#2 -152827#1 -152827#0 152812#4 152812#5 -152806#2 -152806#1 -152806#0 152771#0 152771#2 152771#3 152771#4 152771#5 -152698#1 -152698#0 152663#1 152663#2 152663#3 152663#4 152663#5 152663#6 152663#7 152663#8 152663#9 152663#10 152648#0 152648#1 -152350#0 152349#3 152349#4 152349#1 152349#2 152350#0"/>
    </vehicle>
    <vehicle id="commercial_1-1_277" type="commercial" depart="18066" departLane="best" arrivalPos="random">
        <route edges="152578#3 152578#4 152450#2 152611#0 152611#1 152611#2 -152315 -152961#1 -152961#0 152933#0 152933#1 152933#2 152933#3 152933#4 -152602#6 -152602#5 -152602#4"/>
    </vehicle>
    <vehicle id="commercial_1-2_242" type="commercial" depart="18071" departLane="best" arrivalPos="random">
        <route edges="152286 152283 152650#1 152650#2 152650#3 152650#4 152666#3 152673#0 152673#1 152673#2 152673#3 152673#4 152673#5 152646#0 152668#1 152668#2 -152377 -152712 -152763#3 -152763#2 -152763#1 -152763#0 -152697#0 152225 152939#0 152939#1 -152810#11 -152810#10 -152810#9 -152810#8 -152808#5 -152808#4 -152808#3 -152808#2 -152808#1 -152808#0 153437#1 153437#2 153437#3 153436#1 153436#2 153445#0 153445#1 153445#2 153445#3 153445#4 153445#5 153445#6 153445#7 153445#8 153445#9 153445#10 153445#11"/>
    </vehicle>
    <vehicle id="commercial_1-1_318" type="commercial" depart="18085" departLane="best" arrivalPos="random">
        <route edges="-152586#2 -152589 152589 152586#2 152578#2 152578#3 152578#4 152450#2 152450#3 152450#4 -152449 -152219 -152165 -152601#2 -152601#1 -152601#0 -152663#10 -152663#9 -152663#8 -152663#7 -152663#6 -152663#5 -152663#4 -152663#3 -152663#2 -152663#1 152698#0 152698#1 -152771#5 -152771#4 -152771#3 -152771#2 -152771#0 152806#0 152806#1 152806#2 152816 152956#1 152956#2 152956#3 152956#4 152956#5 152956#6 152956#7 152956#8 152956#10 152955#2 152955#3 152955#4 -152813#3 -152813#2 -152813#1 -152813#0 -152772 152759 152756"/>
    </vehicle>
    <vehicle id="commercial_2-1_289" type="commercial" depart="18106" departLane="best" arrivalPos="random">
        <route edges="153568#0 153568#1 -153568#1 -153568#0 152405#1 152405#2 152405#3 152326#0 152326#1 152326#2 152326#3 152326#4 152326#5 152162 152164#0 152164#1 152395#1 152395#2 152897#0 152897#1 152316 152399 152128 152417 152891#2 152978#0 152978#1 152978#2 -152979 152869#0 152869#1 152869#2 152869#3 152294 -152642 -152394#1 -152394#0 152454#3 -152447"/>
    </vehicle>
    <vehicle id="commercial_3-1_129" type="commercial" depart="18112" departLane="best" arrivalPos="random">
        <route edges="153448#0 153448#1 153448#2 153447#1 153447#2 153447#3 153447#4 153447#5 153447#6 153447#7 153429#1 152730#0 -152732#2 -152732#1 -152732#0 153387#0 153387#1 153388#1 153383#1 153383#2 -152624#1 -152624#0 -153380#1 -153380#0 -152173 -152172#2 -152172#1 -152172#0 -153379#0 -152246 -153381#1 -153381#0 -152247 -153408#5 -153325#5 -153325#4 -153327#11 -153327#10 -153327#9 -153327#8 -153327#7 -153327#6 -153327#5 -153327#4 -153327#2 -153327#1 -153327#0 -153411#1 -153411#0 153409#14 153409#15 153409#16 152993 152995 152702#0 152702#1 152702#2 152702#3 152776 152763#2 152763#3 152935#5"/>
    </vehicle>
    <vehicle id="commercial_1-1_1" type="commercial" depart="18117" departLane="best" arrivalPos="random">
        <route edges="-152773 152380 152812#0 152812#1 152812#2 152812#3 152812#4 152812#5 -152806#2 -152806#1 -152806#0 152771#0 152771#2 152771#3 152771#4 152771#5 -152698#1 -152698#0 152663#1 152663#2 152663#3 152663#4 152663#5 152663#6 152663#7 152663#8 152663#9 152663#10 152648#0 152648#1 -152350#0 152349#3 -152509#1 -152509#0"/>
    </vehicle>
    <vehicle id="commercial_2-1_111" type="commercial" depart="18128" departLane="best" arrivalPos="random">
        <route edges="-153409#9 -153409#8 -153409#7 -153409#6 -153409#5 -153409#4 -153409#3 -153409#1 -153409#0 152645#0 152645#1 152645#2 152645#3 152645#4 152645#5 153402#0 153402#1 153402#2 152936 152680 152170#1 -152697#5 -152697#4 -152697#3 152776 152763#2 152763#3 152712 152377 -152668#2 -152668#1 -152646#0 -152673#5 -152673#4 -152673#3 -152673#2 -152673#1 -152673#0 152650#0 152650#1 152650#2 152530#0 152530#2 152530#4 152530#5 152530#6 152530#7"/>
    </vehicle>
    <vehicle id="commercial_GW1-1_231" type="commercial" depart="18136" departLane="best" arrivalPos="random">
        <route edges="153474 152300 152923 152253 153473#0 153473#1 152298 153338 152299 -153472#26 -153472#25 -153472#24 -153472#23 -153472#22 -153472#20 -153472#19 -153472#18 -153472#17 -153472#16 -153472#15 -153472#14 -153472#13 -153472#12 -153472#11 -153472#10 153004#0 153004#1 153004#2 153004#3 153004#4 153004#5 153004#6 153004#7 152398#2 152398#3 152895#0 152895#1 152895#2 -152866#4 -152866#3 -152866#2 -152866#1 -152866#0 153548#3 153548#0 152941#0"/>
    </vehicle>
    <vehicle id="commercial_2-1_374" type="commercial" depart="18137" departLane="best" arrivalPos="random">
        <route edges="-153376#4 -153376#3 -153376#2 153561#0 153561#1 -153561#1 -153561#0 153376#2 153376#3 153376#4 153376#5 -152585"/>
    </vehicle>
    <vehicle id="commercial_GW2-1_247" type="commercial" depart="18140" departLane="best" arrivalPos="random">
        <route edges="153448#0 153448#1 153448#2 153447#1 153447#2 153447#3 153447#4 153447#5 153447#6 153447#7 153429#1 152730#0 -152732#2 -152732#1 -152732#0 153387#0 153387#1 -153388#0 153323#0 153323#1 153323#2 153323#3 153323#4 153323#5 153323#6 153323#7 153323#8 153323#9 153323#11 153323#12 -153331#7 -153331#6 -153331#5 -153331#4 -153331#3 -153331#2 -153331#1 -153331#0 153440#2 153440#3 153440#4 152832#0 152832#1 152832#2 152832#3 152832#4"/>
    </vehicle>
    <vehicle id="commercial_1-GW2_18" type="commercial" depart="18140" departLane="best" arrivalPos="random">
        <route edges="-152458 152956#3 152956#4 152301 152308#0 152267 152419 152202 -152381 -152289 152790 152288 152796 152287 152757 152286 152282 152665#0 152665#1 152359#2 -152603 -152166#1 -152166#0 -152220 152583#0 152583#1 152583#2 152583#3 152216 152575#0 152575#1 152344 152341#0 152577#0 152577#1 152577#2 152577#3 152577#4 -152556 153359#3 153319#0 153319#1 153319#2 153319#3 153319#4 153355#0 153355#1 153350#0 153350#1 153350#2 153353#2 -152953 -152279 152550"/>
    </vehicle>
    <vehicle id="commercial_2-1_203" type="commercial" depart="18161" departLane="best" arrivalPos="random">
        <route edges="-153388#1 -153388#0 153323#0 153323#1 153323#2 153323#3 153323#4 153323#5 153323#6 153323#7 153323#8 153323#9 153323#11 153323#12 -153331#7 -153331#6 -153331#5 -153331#4 -153331#3 -153331#2 -153331#1 -153331#0 -153440#0 -153437#3 -153437#2 -153437#1 153439 152808#1 152808#2 152808#3 152808#4 152808#5 152810#8 152810#9 152810#10 152810#11 152755 152226 152781#0 152781#1 152781#2 152163 152965#0 152965#1 152965#2 152965#3 -152791#1 152804 152955#3 152955#4 -152813#3 -152813#2 -152813#1 -152813#0 -152772 152856 152858 -152885"/>
    </vehicle>
    <vehicle id="commercial_1-GW1_231" type="commercial" depart="18172" departLane="best" arrivalPos="random">
        <route edges="152393#2 -152159#1 -152159#0 152869#3 152294 -152642 -152394#1 -152394#0 152454#3 -152447 152870#1 152870#2 153634 152293#0 152293#0-AddedOffRampEdge 152293#1 152963 152812#2 152812#3 152812#4 152812#5 -152806#2 -152806#1 -152806#0 152771#0 -152377 -152712 -152763#3 -152763#2 -152776 -152702#3 -152702#2 -152702#1 -152702#0 -152995 -152993 -153409#16 -153409#15 -153409#14 153411#0 153411#1 153327#0 153327#1 153327#2 153327#4 153327#5 153327#6 153327#7 153327#8 153327#9 153327#10 153327#11 153325#4 153325#5 153408#5 152247 153381#0 153381#1 152246 153379#0 153379#1 -153377#7 -153377#6 -153377#5 -153377#4 -153377#3 -153377#2 -153377#1 -153377#0 152508#1 152508#2 -152555 152523 153624#1 152205 152514 152269"/>
    </vehicle>
    <vehicle id="commercial_3-1_292" type="commercial" depart="18175" departLane="best" arrivalPos="random">
        <route edges="-153390#2 -153390#1 -153390#0 -152409#2 -152409#1 -152409#0 152408 -152533 152924#4 152407 152527 152324#1 152284 152851 152206 152532 152390 153637 152326#0 152326#1 152326#2 152326#3 152326#4 152326#5 152162 152164#0 152164#1 152395#1 152395#2 152897#0 152897#1 152984 152810#0 152810#1 152810#2 152810#3 152810#4 152810#5 152810#6 152810#7 152810#8 152810#9 152803"/>
    </vehicle>
    <vehicle id="commercial_1-GW2_136" type="commercial" depart="18181" departLane="best" arrivalPos="random">
        <route edges="152134 152964 152415#0 152415#1 152277 152526 -152326#5 -152326#4 -152326#3 -152326#2 -152326#1 -152326#0 153633 153630#1 153632#1 152998#0 152998#1 -153454#1 -153454#0 -153455#0 -152252 153456"/>
    </vehicle>
    <vehicle id="commercial_1-1_365" type="commercial" depart="18185" departLane="best" arrivalPos="random">
        <route edges="152419 152202 -152381 -152289 152790 152288 152796 152287 152757 152286 152282 152665#0 152665#1 152359#2 -152603 -152166#1 -152166#0 -152220 152583#0 152583#1 152609 -152609 -152583#1 -152583#0 152220 152166#0 152166#1 -152598 152165 152219 152449 152450#1 152450#2 152611#0 152611#1 152611#2 -152315 -152961#1 152451 152452#0 152452#1"/>
    </vehicle>
    <vehicle id="commercial_1-2_146" type="commercial" depart="18186" departLane="best" arrivalPos="random">
        <route edges="-153002#0 152895#2 -152866#4 -152866#3 -152866#2 -152866#1 -152866#0 153548#3 153548#0 152941#0 152941#1 152941#2 152810#11 152755 152226 152781#0 152815 152940#2 152230 152697#0 152697#1 152697#2 -152702#3 -152702#2 -152702#1 -152702#0 -152995 -152993 -153409#16 -153409#15 -153409#14 -153409#13 -153409#12 -153409#11 -153409#10 -153409#9 -153409#8 -153409#7 -153409#6 -153409#5 -153409#4 -153409#3 -153409#1 -153409#0 153395#0 153395#1 152929#4 152929#0 152929#1 152929#2 153325#0 153325#1 153325#2"/>
    </vehicle>
    <vehicle id="commercial_1-GW1_273" type="commercial" depart="18204" departLane="best" arrivalPos="random">
        <route edges="-152661 152377 -152771#0 152806#0 152806#1 152806#2 152816 152956#1 152956#2 152956#3 152956#4 152301 152308#0 152308#1 152308#2 -152305 152314#1 152314#2 -152304 152277 152526 -152326#5 -152326#4 -152326#3 -152326#2 -152326#1 -152326#0 153633 153630#1 153632#1 152960 -152532 -152206 -152851 -152284 152321#0 152321#1 152198 152323 152201 152325 152319#1"/>
    </vehicle>
    <vehicle id="commercial_1-2_25" type="commercial" depart="18207" departLane="best" arrivalPos="random">
        <route edges="152707#3 -152697#3 -152697#2 -152697#1 -152697#0 152225 152939#0 152789 152781#2 152163 152965#0 152965#1 152965#2 152965#3 -152791#1 152820#0 152820#1 152133#7 152133#0 152134 152964 -152266 -152414 -152954 152891#1 152891#2 152978#0 -152908#8 152749"/>
    </vehicle>
    <vehicle id="commercial_1-2_203" type="commercial" depart="18216" departLane="best" arrivalPos="random">
        <route edges="152350#0 152350#1 -152648#0 -152663#10 -152663#9 -152663#8 -152663#7 -152663#6 -152663#5 -152663#4 152710 152170#0 152170#1 -152697#5 -152697#4 -152697#3 -152702#3 -152702#2 -152702#1 -152702#0 -152995 -152993 -153409#16 -153409#15 -153409#14 153411#0 153411#1 153327#0 153327#1 153327#2 153327#4 153327#5 153327#6 153327#7 153327#8 153327#9 153327#10 153327#11 153325#4 153325#5 153408#5 152247 153381#0 153381#1 152246 153379#0 -153382 152172#1 152172#2 152173 153380#0 153380#1 153380#2 152624#1 -153383#2 -153383#1 -153388#1 -153387#1 -153387#0 152732#0 152732#1 152732#2 -152730#0 153420#1 152620#0 152620#1"/>
    </vehicle>
    <vehicle id="commercial_1-GW1_156" type="commercial" depart="18219" departLane="best" arrivalPos="random">
        <route edges="153409#11 153409#12 153409#13 153409#14 153409#15 153409#16 152993 152995 152702#0 152702#1 152702#2 152702#3 -152697#2 -152697#1 -152697#0 152225 152939#0 152789 152781#2 152163 152965#0 152965#1 152965#2 152965#3 -152791#1 152820#0 152820#1 152133#7 152133#0 152134 152964 -152266 -152414 -152954 153472#1 153472#2 153472#3 153472#5 153472#6 153472#7 153472#8 153472#9 153472#10 153472#11 153472#12 153472#13 153472#14 153472#15 153472#16 153472#17 153472#18 153472#19 153472#20 153472#22 153472#23 153472#24 153472#25 153472#26 -152299 -153338 -152298 -153473#1 -153473#0 -152253 -152923 -152300 -153474"/>
    </vehicle>
    <vehicle id="commercial_2-1_232" type="commercial" depart="18224" departLane="best" arrivalPos="random">
        <route edges="153351#3 153351#4 153321#2 153358#0 153356#0 153356#1 153322#1 153322#2 153322#3 153322#4 153368#1 153476#0 153476#1 153476#2 153476#3 153476#4 153476#5 153476#6 153476#7 152212 -153374#2 -153374#1 -153374#0 152214 -152574#1 152341#0 152341#1 -152575#1 -152575#0 -152216 -152583#3 -152583#2 -152583#1 -152583#0 152220 152166#0 152166#1 152603 152359#3 152359#0 152359#1 -152665#1 -152665#0 -152222 -152286 -152757 -152287 -152796 -152288 -152790 152289 152381 -152202 152457 152307 152308#2 -152305 152314#1 152313 -152894#2 -152894#1 -152894#0 153556 152971#2 152971#3 152882#0 152882#1 152869#0 152869#1 152869#2 152159#0"/>
    </vehicle>
    <vehicle id="commercial_3-1_222" type="commercial" depart="18229" departLane="best" arrivalPos="random">
        <route edges="153455#1 153454#1 153001#0 153001#1 152231 153334 153637 152326#0 152326#1 152326#2 152326#3 152326#4 152326#5 152162 152164#0 152164#1 152395#1 152395#2 152897#0 152897#1 152984 152810#0 152810#1 152810#2 152810#3 152810#4 152810#5 152810#6 152810#7 152810#8 152810#9 152810#10 152810#11 152755 152226 152781#0 152815 152940#2 152230 152697#0 152763#0 152763#1 152763#2 -152542 -152777"/>
    </vehicle>
    <vehicle id="commercial_1-GW1_366" type="commercial" depart="18233" departLane="best" arrivalPos="random">
        <route edges="152673#5 152646#0 152668#1 152668#2 -152771#0 152806#0 152806#1 152806#2 152816 152956#1 152956#2 152956#3 152956#4 152301 152308#0 152308#1 152308#2 -152305 152314#1 152314#2 152314#3 152135 152133#0 152134 152964 -152266 -152414 -152954 153472#1 153472#2 153472#3 153472#5 153472#6 153472#7 153472#8 153472#9 153472#10 153472#11 153472#12 153472#13 153472#14 153472#15 153472#16 153472#17 153472#18 153472#19 153472#20 153472#22 153472#23 153472#24 153472#25 153472#26 -152299 -153338 -152298 -153473#1 -153473#0 -152253 -152923 -152300 -153474"/>
    </vehicle>
    <vehicle id="commercial_1-GW2_112" type="commercial" depart="18233" departLane="best" arrivalPos="random">
        <route edges="-152933#0 152937#0 152937#1 152937#2 152937#3 152937#4 152280 152585 152586#1 152586#2 -152578#1 -152578#0 152572 152215 152342#1 152217 -153476#7 -153476#6 -153476#5 -153476#4 -153476#3 -153476#2 -153476#1 -153476#0 153368#2 153368#3 153368#4 -152303 -152561 -152241 -153365#1 -153365#0 152242 -153379#5 -153379#4 -153379#3 -153379#2 -153379#1 -153382 152172#1 152172#2 152173 153380#0 153380#1 153380#2 152624#1 -153383#2 -153383#1 -153388#1 -153387#1 -153387#0 152732#0 152732#1 152732#2 -152730#0 -153420#0 -153429#0 -153447#6 -153447#5 -153447#4 -153447#3 -153447#2 -153447#1 -153447#0 -153448#1 -153448#0"/>
    </vehicle>
    <vehicle id="commercial_1-1_77" type="commercial" depart="18234" departLane="best" arrivalPos="random">
        <route edges="152801#0 152827#2 152301 152308#0 152308#1 152308#2 -152305 152314#1 152313 -152894#2 -152894#1 -152894#0 153556 152971#2 152971#3 152971#4 152879#0"/>
    </vehicle>
    <vehicle id="commercial_1-1_61" type="commercial" depart="18241" departLane="best" arrivalPos="random">
        <route edges="-152662 152664#1 152664#2 152663#4 152663#5 152663#6 152663#7 152663#8 152663#9 152663#10 152663#11 152601#1 152601#2 152165 152219 152449 152450#1 -152578#4 -152578#3 -152578#2 -152578#1 -152345 152578#2 152578#3"/>
    </vehicle>
    <vehicle id="commercial_1-2_30" type="commercial" depart="18253" departLane="best" arrivalPos="random">
        <route edges="-153555#0 152883#2 152896#1 152978#4 152969 -152891#1 -153472#0 152414 152266 152415#0 -152934#2 -152934#1 -152934#0 152398#3 152895#0 152895#1 152895#2 -152866#4 -152866#3 -152866#2 -152866#1 -152866#0 153548#3 153548#0 153548#1 -152778 -152797 -152810#8 -152808#5"/>
    </vehicle>
    <vehicle id="commercial_1-2_222" type="commercial" depart="18264" departLane="best" arrivalPos="random">
        <route edges="-152586#2 -152589 152589 152586#2 152578#2 152578#3 152578#4 152450#2 152450#3 152450#4 -152449 -152219 -152165 -152601#2 -152601#1 -152601#0 -152663#10 -152663#9 -152663#8 -152663#7 -152663#6 -152663#5 -152663#4 152710 152170#0 152170#1 -152697#5 -152697#4 -152697#3 -152702#3 -152702#2 -152702#1 -152702#0 -152995 -152993 -153409#16 -153409#15 -153409#14 -153409#13 -153409#12 -153409#11 -153409#10 -153409#9 -153409#8 -153409#7"/>
    </vehicle>
    <vehicle id="commercial_2-1_8" type="commercial" depart="18279" departLane="best" arrivalPos="random">
        <route edges="152644#2 152644#3 152644#4 152644#5 153394#0 153394#1 153394#2 153394#3 153392#4 153007#0 153007#1 152645#1 152645#2 152645#3 152645#4 152645#5 153402#0 153402#1 153402#2 152936 152680 152170#1 -152697#5 -152697#4 -152697#3 -152697#2 -152697#1 -152697#0 152225 152939#0 152789 152781#2 152163 152965#0 152965#1 152965#2 152965#3 -152791#1 152804 152955#3 152955#4 -152813#3 -152813#2 -152813#1 -152813#0 -152772 152856 152858 -152885 152881 152880#0 -152158 -152932"/>
    </vehicle>
    <vehicle id="commercial_1-2_124" type="commercial" depart="18281" departLane="best" arrivalPos="random">
        <route edges="153269#2 152956#10 152955#2 152955#3 -152817#2 -152817#1 -152817#0 152133#6 152133#7 -152135 152314#4 152314#1 152314#2 -152304 152277 152526 -152326#5 -152326#4 -152326#3 -152326#2 -152326#1 -152326#0 153633 152401 -153003#6 -153452#6 -153452#5 -153452#4 -153452#3 -153452#2 -153452#1 -153452#0 153447#5 153447#6 153447#7 153429#1 152730#0 -152732#2 -152732#1 152744"/>
    </vehicle>
    <vehicle id="commercial_1-1_9" type="commercial" depart="18284" departLane="best" arrivalPos="random">
        <route edges="152644#5 153394#0 153394#1 153394#2 153394#3 153392#4 153007#0 153007#1 152645#1 152645#2 152645#3 152645#4 152645#5 153402#0 153402#1 153402#2 152936 152680 152170#1 -152697#5 -152697#4 -152697#3 -152697#2 -152697#1 -152697#0 152225 152939#0 152939#1 -152810#11 -152810#10 -152810#9 -152810#8 -152810#7 -152810#6 -152810#5 -152810#4 -152810#3 -152832#6 -152832#5 -152832#4 -152832#3 -152832#2 -152387 152832#3"/>
    </vehicle>
    <vehicle id="commercial_1-3_5" type="commercial" depart="18284" departLane="best" arrivalPos="random">
        <route edges="-152695 -152487#0 -152697#4 -152697#3 -152697#2 -152697#1 -152697#0 152225 152939#0 152939#1 -152810#11 -152810#10 -152810#9 -152810#8 -152810#7 -152810#6 -152810#5 -152810#4 -152810#3 -152810#2 -152810#1 -152810#0 152985 -152897#1 -152897#0 152395#3 152395#0 -152164#1 -152164#0 -152162 -152326#5 -152326#4 -152326#3 -152326#2 -152326#1 -152326#0 153633 152401 -153003#6 -153452#6 -153452#5 -153452#4 -153452#3 -153452#2 -153452#1 -153452#0 153447#5 153431#0 153431#1 153431#2 153431#3 152412#1 152409#0 152409#1 152409#2 152409#3 152248 153391 152249 -153432 153432 -152249 -153391"/>
    </vehicle>
    <vehicle id="commercial_GW1-1_322" type="commercial" depart="18289" departLane="best" arrivalPos="random">
        <route edges="152268 152513 152204 152512#0 152522 152555 152508#3 152508#4 153377#0 153377#1 153377#2 153377#3 153377#4 153377#5 153377#6 153377#7 -153379#1 -153379#0 -152246 -153381#1 -153381#0 -152247 -153408#5 -153325#5 -153325#4 -153325#3 -153325#2 -153325#1 -153325#0 152929#3 -153395#1 -153395#0 152645#0 152645#1 152645#2 152645#3 152645#4 152645#5 153402#0 153402#1 153402#2 152936 152680 152170#1"/>
    </vehicle>
    <vehicle id="commercial_3-1_149" type="commercial" depart="18292" departLane="best" arrivalPos="random">
        <route edges="-152746#2 -152746#1 -152746#0 152746#4 152746#5 152746#7 152746#8 -152409#0 152408 -152533 152924#4 152407 152527 152324#1 152284 152851 152206 152532 152390 153637 152326#0 152326#1 152326#2 152326#3 152326#4 152326#5 152162 -153002#3 -153002#2 -153002#1 -153002#0 -152895#1 -152895#0 152398#0 152398#1 152398#2 152934#0"/>
    </vehicle>
    <vehicle id="commercial_1-GW2_25" type="commercial" depart="18298" departLane="best" arrivalPos="random">
        <route edges="-152394#4 -152394#3 -152394#2 -152394#1 -152394#0 152454#3 -152447 152870#1 152870#2 153634 152293#0 152293#0-AddedOffRampEdge 152293#1 152963 152812#2 152812#3 152812#4 152812#5 -152806#2 -152806#1 -152806#0 152771#0 152771#2 152771#3 152771#4 152771#5 -152698#1 -152698#0 152663#1 152663#2 152663#3 152663#4 152663#5 152663#6 152663#7 152663#8 152663#9 152663#10 152663#11 152601#1 152601#2 152165 152219 152449 152450#1 -152578#4 -152578#3 -152578#2 -152578#1 -152578#0 152572 152215 153361#0 153361#1 153361#3 153361#4 153319#0 153319#1 153319#2 153319#3 153319#4 153355#0 153355#1 153350#0 153350#1 153350#2 153353#2 -152953 -152279 152550"/>
    </vehicle>
    <vehicle id="commercial_1-1_499" type="commercial" depart="18333" departLane="best" arrivalPos="random">
        <route edges="152452#1 -152451 152961#1 152315 -152611#2 -152611#1 -152611#0 152450#3 152450#4 -152449 -152219 -152165 -152601#2 -152601#1 -152601#0 -152663#10 -152663#9 -152663#8 -152663#7 -152663#6 -152663#5 -152663#4 -152663#3 -152663#2 -152663#1 152698#0 152698#1 -152935#5 -152935#4 -152777"/>
    </vehicle>
    <vehicle id="commercial_2-1_241" type="commercial" depart="18337" departLane="best" arrivalPos="random">
        <route edges="-153419#1 -153419#0 152250 153408#0 153408#1 153408#2 153408#3 153408#4 -153325#5 -153325#4 -153327#11 -153327#10 -153327#9 -153327#8 -153327#7 -153327#6 -153327#5 -153327#4 -153327#2 -153327#1 -153327#0 -153411#1 -153411#0 153409#14 153409#15 153409#16 152993 152995 152702#0 152702#1 152702#2 152702#3 152697#3 152697#4 152697#5 152699 152700 152663#1 152663#2 152663#3 152663#4 152663#5 152663#6 152663#7 152663#8 152663#9 152663#10 152663#11 152601#1 152601#2 152165 152219 152449 152450#1 152450#2 152611#0 152611#1 152611#2 -152315 -152961#1 -152961#0 152933#0 152933#1 152933#2 152933#3"/>
    </vehicle>
    <vehicle id="commercial_GW2-1_119" type="commercial" depart="18337" departLane="best" arrivalPos="random">
        <route edges="-152570#1 152568#1 152568#2 -152973 -152620#1 -152620#0 152728 153486#0 153486#1 153486#2 153486#3 153486#4 153486#5 153383#0 153383#1 153383#2 -152624#1 -152624#0 -153380#1 -153380#0 -152173 -152172#2 -152172#1 -152172#0 -153379#0 -152246 -153381#1 -153381#0 -152247 -153408#5 -153325#5 -153325#4 -153327#11 -153327#10 -153327#9 -153327#8 -153327#7 -153327#6 -153327#5 -153327#4 -153327#2 -153327#1 -153327#0 -153411#1 -153411#0 153409#14 153409#15 153409#16 152993 152995 152702#0 152702#1 152702#2 152702#3 152776 152763#2 152763#3 152712 152377 -152668#2 -152668#1 152684#0"/>
    </vehicle>
    <vehicle id="commercial_1-3_288" type="commercial" depart="18343" departLane="best" arrivalPos="random">
        <route edges="152942 -152773 152380 152385 152464 152292 153636 153635 152870#4 -152879#2 -152879#1 -152879#0 152971#1 152971#2 152896#0 152896#1 152978#4 152969 -152891#1 153472#1 153472#2 153472#3 153472#5 153472#6 153472#7 153472#8 153472#9 153472#10 153472#11 153472#12 153472#13 153472#14 153472#15 153472#16 153472#17 153472#18 153472#19 153472#20 153472#22 153472#23 153472#24 153472#25 153472#26 -152299 -153338 -152298 -153473#1 -152899"/>
    </vehicle>
    <vehicle id="commercial_3-1_251" type="commercial" depart="18346" departLane="best" arrivalPos="random">
        <route edges="-152899 153454#1 153001#0 153001#1 152231 153334 153637 152326#0 152326#1 152326#2 152326#3 152326#4 152326#5 152162 152164#0 152164#1 152395#1 152395#2 152897#0 152897#1 152316 152399 152128 152417 152891#2 152978#0 152978#1 152978#2 -152979 152869#0 152869#1"/>
    </vehicle>
    <vehicle id="commercial_2-1_303" type="commercial" depart="18354" departLane="best" arrivalPos="random">
        <route edges="-153411#3 -153411#2 -153411#1 -153411#0 153409#14 153409#15 153409#16 152993 152995 152702#0 152702#1 152702#2 152702#3 -152697#2 -152697#1 -152697#0 152225 152939#0 152789 152781#2 152163 152965#0 152965#1 152965#2 152965#3 -152791#1 152820#0 152820#1 152133#7 152133#0 152133#1 152133#2 -152853 152295 -152894#2 -152894#1 -153555#2 -153555#1 -153555#0"/>
    </vehicle>
    <vehicle id="commercial_2-1_166" type="commercial" depart="18360" departLane="best" arrivalPos="random">
        <route edges="152230 152697#0 152697#1 152697#2 -152702#3 -152702#2 152703#0 152703#1 153400#1 153400#2 153400#3 153400#4 153400#5 153400#6 153400#7 153400#8 153441#0 153441#1 153437#0 153439 152808#1 152808#2"/>
    </vehicle>
    <vehicle id="commercial_1-2_308" type="commercial" depart="18363" departLane="best" arrivalPos="random">
        <route edges="-152954 153472#1 153472#2 153472#3 153472#5 153472#6 153472#7 153472#8 153472#9 153004#0 153004#1 153004#2 153004#3 153004#4 153004#5 153004#6 153004#7 152398#2 152398#3 152895#0 152895#1 152895#2 -152866#4 -152866#3 -152866#2 -152866#1 -152866#0 153548#3 153548#0 153548#1 -152778 -152797 -152810#8 -152808#5 -153433 153434"/>
    </vehicle>