<?xml version="1.0" encoding="UTF-8"?>

<!--
    Monaco SUMO Traffic (MoST) Scenario
    Copyright (C) 2018
    Lara CODECA

    This program is free software: you can redistribute it and/or modify
    it under the terms of the GNU General Public License as published by
    the Free Software Foundation, either version 3 of the License, or
    (at your option) any later version.

    This program is distributed in the hope that it will be useful,
    but WITHOUT ANY WARRANTY; without even the implied warranty of
    MERCHANTABILITY or FITNESS FOR A PARTICULAR PURPOSE.  See the
    GNU General Public License for more details.

    You should have received a copy of the GNU General Public License
    along with this program.  If not, see <http://www.gnu.org/licenses/>.
-->

<routes xmlns:xsi="http://www.w3.org/2001/XMLSchema-instance" xsi:noNamespaceSchemaLocation="http://sumo.dlr.de/xsd/routes_file.xsd"> 
    <vehicle id="special_2-1_145" type="special" depart="18038" departLane="best" arrivalPos="random">
        <route edges="-153560 153561#1 153561#2 -152900#0 153562 152977#2 152977#3 152888#0 152968#0 152968#1 152460#1 152460#2 152399#0 152399#1 152648 -152299"/>
    </vehicle>
    <vehicle id="special_1-1_246" type="special" depart="18047" departLane="best" arrivalPos="random">
        <route edges="-152207 152463 152312 152313#2 152313#3 -152306 -152833#2 -152833#1 -152387#0 152813 152818#5 -152812#2 -152812#1 -152806 152941#1 152941#2 152548 -152769#2 -152769#1 -152769#0 -152703#0 152468#0 152468#1"/>
    </vehicle>
    <vehicle id="special_3-1_282" type="special" depart="18048" departLane="best" arrivalPos="random">
        <route edges="152415#3 152253 153397 152254 -153438 153438 -152254 -153397 -152253 -152415#3 -152415#2 -152415#1 -152415#0 152414 -152539 152930#4 152413 152533 152329#1 152289 152857 152211 152538 152395 153643 152331#0 152406 152331#2 152331#3 152331#4 152331#5 152331#6 152331#7 152167 -153008#3 -153008#2 -153008#1 -153008#0 -152901#1 -152901#0 152403#0 152403#1 152403#2 152940#0 152940#1 152940#2 152421#1 152309 152319#3 152319#4 152310 152313#3 -152306 152962#5 152962#6 152962#7 152962#8 -153275#2 -153275#1 -152136#1 -152136#0 152804"/>
    </vehicle>
    <vehicle id="special_3-1_203" type="special" depart="18049" departLane="best" arrivalPos="random">
        <route edges="153454#0 153454#1 153454#2 153453#1 153453#2 153453#3 153453#4 153453#5 153453#6 153453#7 153435#1 152736#0 -152738#2 -152738#1 -152738#0 153393#0 153393#1 -153394#0 153329#0 153329#1 153329#2 153329#3 153329#4 153329#5 153329#6 153329#7 153329#8 153329#9 153329#11 153329#12 -153337#7 -153337#6 -153337#5 -153337#4 -153337#3 -153337#2 -153337#1 -153337#0 -153446#0 -153443#3 -153443#2 153448 152832#1 152832#2 -152838#4 -152838#3"/>
    </vehicle>
    <vehicle id="special_1-1_296" type="special" depart="18089" departLane="best" arrivalPos="random">
        <route edges="152669#1 152669#2 152669#3 152716 152175#0 152175#1 -152703#5 -152703#4 -152703#3 -152703#2 -152703#1 -152703#0 152230 152945#0 152945#1 -152816#11 -152947#2 -152947#1 -152947#0 153554#1 153554#2 152872#0 152872#1 152872#2 152872#3 152872#4 152872#5 153008#0"/>
    </vehicle>
    <vehicle id="special_1-2_236" type="special" depart="18101" departLane="best" arrivalPos="random">
        <route edges="152872#4 152872#5 -152901#1 -152901#0 152403#0 152403#1 152403#2 152403#3 152901#0 152901#1 152901#2 -152872#4 -152872#3 -152872#2 -152872#1 -152872#0 153554#3 153554#0 152947#0 152947#1 152947#2 152816#11 152761 152231 152787#0 152821 152946#2 152235 152703#0 152703#1 152703#2 -152708#3 -152708#2 -152708#1 -152708#0 -153001 -152999 -153415#16 -153415#15 -153415#14 -153415#13 -153415#12 -153415#11 -153415#10 -153415#9 -153415#8 -153415#7 -153415#6 -153415#5 -153415#4 -153415#3 -153415#1 -153415#0 152651#0 152651#1 152651#2 -152683 -153416#2 -153416#1 -153416#0"/>
    </vehicle>
    <vehicle id="special_1-2_203" type="special" depart="18107" departLane="best" arrivalPos="random">
        <route edges="153493#0 153493#1 153493#2 -152314 -152594 152594 152314 -153493#2 -153493#1 -153493#0 153382#5 152592#1 152592#2 152584#2 152584#3 152584#4 152456#2 152456#3 152456#4 -152455 -152224 -152170 -152607#2 -152607#1 -152607#0 -152669#10 -152669#9 -152669#8 -152669#7 -152669#6 -152669#5 -152669#4 152716 152175#0 152175#1 -152703#5 -152703#4 -152703#3 -152703#2 -152703#1 -152703#0 152230 152945#0 152945#1 -152816#11 -152816#10 -152816#9 -152816#8 -152814#5 -152814#4 -152814#3 -152814#2 -152814#1 -152814#0 -153443#0 -153447#1"/>
    </vehicle>
    <vehicle id="special_1-1_41" type="special" depart="18108" departLane="best" arrivalPos="random">
        <route edges="152820#2 152820#3 152820#4 152818#0 152818#1 152818#2 152818#3 152833#0 152833#1 152807#1 152807#2 -152768#1 -152768#0 152962#7 152962#8 152962#10 152961#2 152961#3 152961#4 -152819#3 -152819#2 -152819#1 -152819#0 -152778 152765 -152774 -152775 152776 152801 152805 -152867 -152949 152890 152878 152861"/>
    </vehicle>
    <vehicle id="special_3-1_252" type="special" depart="18113" departLane="best" arrivalPos="random">
        <route edges="153643 152331#0 152406 152331#2 152331#3 152331#4 152331#5 152331#6 152331#7 152167 152169#0 152169#1 152400#1 152400#2 152400#3 -152893#1 -152893#0 152301 -152894#1 -152894#0 152838#0 152838#1 152838#2 152838#3"/>
    </vehicle>
    <vehicle id="special_3-1_187" type="special" depart="18119" departLane="best" arrivalPos="random">
        <route edges="153459 153461#1 153460#1 153007#0 153007#1 152236 153340 153643 152331#0 152406 152331#2 152331#3 152331#4 152331#5 152331#6 152331#7 152167 152169#0 152169#1 152400#1 152400#2 152903#0 152903#1 152990 152816#0 152816#1 152816#2 152816#3 152816#4 152816#5 152816#6 152816#7 152816#8 152816#9 152816#10 152816#11 152761 152231 152787#0 152821 152946#2 152235 152703#0 152769#0 152769#1 152769#2 152769#3 152718 152382 -152777#0 152772"/>
    </vehicle>
    <vehicle id="special_3-1_201" type="special" depart="18123" departLane="best" arrivalPos="random">
        <route edges="152305 152929 152258 153479#0 153479#1 152303 153344 152304 -153478#26 -153478#25 -153478#24 -153478#23 -153478#22 -153478#20 -153478#19 -153478#18 -153478#17 -153478#16 -153478#15 -153478#14 -153478#13 -153478#12 -153478#11 -153478#10 -153478#9 -153478#8 -153478#7 -153478#6 -153478#5 -153478#3 -153478#2 -153478#1 -153478#0 152540#0 152540#1 152138#2 152138#3 152138#4 152138#5 152823#0 152828 152820#2 152820#3 152389#0 152389#1 152779 152383 152773 -152771 152948 -152779"/>
    </vehicle>
    <vehicle id="special_3-1_243" type="special" depart="18134" departLane="best" arrivalPos="random">
        <route edges="-152929 -152305 -153480 153480 152305 152929 152258 153479#0 153479#1 152303 153344 152304 -153478#26 -153478#25 -153478#24 -153478#23 -153478#22 -153478#20 -153478#19 -153478#18 -153478#17 -153478#16 -153478#15 -153478#14 -153478#13 -153478#12 -153478#11 -153478#10 -153478#9 -153478#8 -153478#7 -153478#6 -153478#5 -153478#3 -153478#2 -153478#1 -153478#0 152540#0 152540#1 152138#2 -152859 152300 -152900#2 -152900#1"/>
    </vehicle>
    <vehicle id="special_3-1_281" type="special" depart="18147" departLane="best" arrivalPos="random">
        <route edges="152412 152533 152329#1 152289 152857 152211 152538 152395 153643 152331#0 152406 152331#2 152331#3 152331#4 152331#5 152331#6 152331#7 152167 -153008#3 -153008#2 -153008#1 -153008#0 -152901#1 -152901#0 152403#0 152403#1 152403#2 152940#0 152940#1 152940#2 152421#1 152309 152319#3 152140 152138#0 152138#1 152138#2 152138#3 152138#4 152138#5 152823#0 152823#1 152823#2 152961#4 -152819#3 -152819#2 -152819#1 -152819#0 -152778 152862 152864 -152891 152887 152886#0 -152163 152873"/>
    </vehicle>
    <vehicle id="special_3-1_94" type="special" depart="18203" departLane="best" arrivalPos="random">
        <route edges="-153461#0 -152257 153462 -153462 152257 153461#0 153461#1 153460#1 153007#0 153007#1 152236 153340 153643 152331#0 152406 152331#2 152331#3 152331#4 152331#5 152331#6 152331#7 152167 152169#0 152169#1 152400#1 152400#2 152903#0 152903#1 152990 152816#0 152816#1 152816#2 152816#3 152816#4 152816#5 152816#6 152816#7 152816#8 152816#9 152816#10 152816#11 152761 152231 152787#0 152821 152946#2 152235 152703#0 152703#1 152703#2 152703#3 152703#4 152703#5 152705 152706 152669#1 152669#2 152669#3 152669#4 152669#5 152669#6 152669#7 152669#8 152669#9 152669#10 152669#11 152607#1 152607#2 152170 152224 152455 152456#1 152456#2 152456#3 152608#0 152608#1 152608#2 152608#3 152608#4 152608#5 152608#6 152608#7 152608#8"/>
    </vehicle>
    <vehicle id="special_1-1_112" type="special" depart="18283" departLane="best" arrivalPos="random">
        <route edges="-152461#1 -152462 -152348#0 152537#0 152537#1 152537#2 152537#4 152537#6 152656#4 152672#3 152672#4 152283 -152291 -152763 -152292 -152802 -152293 -152796 152294 152386 -152207 152463 152312 152313#2 152313#3 -152306 152962#5 152962#6 152962#7 152962#8 152962#10 152961#2 152961#3 152961#4 -152819#3 -152819#2 -152819#1 -152819#0 -152778 152862 152864 -152891 152887 152886#0 152886#1 152883 152884 152944 152882#1 152882#2 152879 152871 152865"/>
    </vehicle>
    <vehicle id="special_1-3_111" type="special" depart="18310" departLane="best" arrivalPos="random">
        <route edges="-152816#10 -152816#9 -152816#8 -152816#7 -152816#6 -152816#5 -152816#4 -152816#3 -152816#2 -152816#1 -152816#0 152991 -152903#1 -152903#0 152400#3 152400#0 -152169#1 -152169#0 -152167 -152331#7 -152331#6 -152331#5 -152331#4 -152331#3 -152331#2 -152331#1 -152331#0 153639 152407 -153009#6 -153458#6 -153458#5 -153458#4 -153458#3 -153458#2 -153458#1 -153458#0 -153453#4 -153453#3 -153453#2 -153453#1 -153453#0 -153454#1 153459"/>
    </vehicle>
    <vehicle id="special_2-1_189" type="special" depart="18352" departLane="best" arrivalPos="random">
        <route edges="-152402 -153010#0 -153478#9 -153478#8 -153478#7 -153478#6 -153478#5 -153478#3 -153478#2 -153478#1 -153478#0 152540#0 152540#1 152138#2 152138#3 152138#4 152138#5 152823#0 152828 152820#2 152820#3 152820#4 152390 152470 152297 153642 153641"/>
    </vehicle>
    <vehicle id="special_3-1_208" type="special" depart="18366" departLane="best" arrivalPos="random">
        <route edges="153643 152331#0 152406 152331#2 152331#3 152331#4 152331#5 152331#6 152331#7 152167 152169#0 152169#1 152400#1 152400#2 152903#0 152903#1 152990"/>
    </vehicle>
    <vehicle id="special_1-3_269" type="special" depart="18410" departLane="best" arrivalPos="random">
        <route edges="-152453 152876#1 152876#2 152876#3 152876#4 -152885#2 -152885#1 -152885#0 152977#1 -153562 152900#0 152900#1 152900#2 -152300 152859 152138#3 152138#4 152138#5 152138#6 152138#7 -152140 152319#4 152319#1 152319#2 -152309 152282 152532 -152331#7 -152331#6 -152331#5 -152331#4 -152331#3 -152331#2 -152331#1 -152331#0 153639 153636#1 153638#1 153004#0 153004#1 -153460#1 -153460#0"/>
    </vehicle>
    <vehicle id="special_1-2_113" type="special" depart="18437" departLane="best" arrivalPos="random">
        <route edges="152584#3 152584#4 152456#2 152456#3 152456#4 152456#1 -152584#4 -152584#3 -152584#2 -152584#1 -152584#0 152578 152220 152347#1 152222 -153482#7 -153482#6 -153482#5 -153482#4 -153482#3 -153482#2 -153482#1 -153482#0 153374#2 153374#3 153374#4 -152308 -152567 -152246 -153371#1 -153371#0 152247 -153385#5 -153385#4 -153385#3 -153385#2 -153385#1 -153388 152177#1 152177#2 152178 153386#0 153386#1 153386#2 152630#1 -153389#2 -153389#1 -153394#1 -153393#1 -153393#0 152738#0 152738#1 152738#2 -152736#0 -153426#0 152910#0 152910#1 152910#2 152910#3 152910#5 153429#12 -153429#12 -152910#5"/>
    </vehicle>
    <vehicle id="special_1-3_67" type="special" depart="18513" departLane="best" arrivalPos="random">
        <route edges="-152669#10 -152669#9 -152669#8 -152669#7 -152669#6 -152669#5 -152669#4 152716 152175#0 152175#1 -152703#5 -152703#4 -152703#3 -152703#2 -152703#1 -152703#0 152230 152945#0 152795 152787#2 152168 152971#0 152971#1 152971#2 152971#3 -152797#1 152826#0 152826#1 152138#7 152138#0 152139 152970 -152271 -152420 -152960 153478#1 153478#2 153478#3 153478#5 153478#6 153478#7 153478#8 153478#9 153478#10 153478#11 153478#12 153478#13 153478#14 153478#15 153478#16 153478#17 153478#18 153478#19 153478#20 153478#22 153478#23 153478#24 153478#25 153478#26 -152304 -153344 -152303 -153479#1 -152905"/>
    </vehicle>
    <vehicle id="special_3-1_255" type="special" depart="18529" departLane="best" arrivalPos="random">
        <route edges="153461#1 153460#1 153007#0 153007#1 152236 153340 153643 152331#0 152406 152331#2 152331#3 152331#4 152331#5 152331#6 152331#7 152167 152169#0 152169#1 152400#1 152400#2 152903#0 152903#1 152321 152404 -152960 152897#1 152897#2 152984#0 152984#1 152984#2 -152985 -152888#1 152968#0 152968#1 152460#1 152460#2 152399#0 152399#1"/>
    </vehicle>
    <vehicle id="special_2-1_55" type="special" depart="18535" departLane="best" arrivalPos="random">
        <route edges="-153429#10 -153429#9 152981#0 152981#1 153429#10 153429#11 -152910#5 -152931 -152910#0 153435#1 152736#0 -152738#2 -152738#1 -152738#0 153393#0 153393#1 -153394#0 153329#0 153329#1 153329#2 153329#3 153329#4 153329#5 153329#6 153329#7 153329#8 153329#9 153329#11 153329#12 -153337#7 -153337#6 -153337#5 -153337#4 -153337#3 -153337#2 -153337#1 -153337#0 -153446#0 -153443#3 -153443#2 -153443#1 153445 152814#1 152814#2 152814#3 152814#4 152814#5 152816#8 152816#9 152816#10 152816#11 152761 152231 152787#0 152787#1 152787#2 152168 152971#0 152971#1 152971#2 152971#3 -152797#1 152810 152961#3 152961#4 -152819#3 -152819#2 -152819#1 -152819#0 -152778 152862 152864 -152891 152887 152886#0 152886#1 152883 152884 152944 152882#1 152882#2 152879 152871 152865 152870"/>
    </vehicle>
    <vehicle id="special_1-3_258" type="special" depart="18538" departLane="best" arrivalPos="random">
        <route edges="152877#1 152877#2 -152399#4 -152399#3 -152399#2 152648 -152299 -152875#3 -152875#2 -152875#1 -152875#0 152985 152984#3 152984#4 152975 -152897#1 -153478#0 152420 152271 152421#0 152421#1 152282 152532 -152331#7 -152331#6 -152331#5 -152331#4 -152331#3 -152331#2 -152331#1 -152331#0 153639 153636#1 153638#1 153004#0 153004#1 -153460#1 -153460#0"/>
    </vehicle>
    <vehicle id="special_1-3_222" type="special" depart="18548" departLane="best" arrivalPos="random">
        <route edges="153337#1 153337#2 -153339 153339 -153337#2 -153337#1 -153337#0 153446#2 153446#3 153446#4 153446#5 152894#1 -152301 152893#0 152893#1 152400#0 -152169#1 -152169#0 -152167 -152331#7 -152331#6 -152331#5 -152331#4 -152331#3 -153481#11 -153481#9 -153481#8 -153481#7 -153481#6 -153481#5 -153481#3 -153481#2 -153481#1 -153481#0 153478#26 -152304 -153344 -152303 -153479#1 -152905"/>
    </vehicle>
    <vehicle id="special_1-2_29" type="special" depart="18550" departLane="best" arrivalPos="random">
        <route edges="-152684#1 153417#1 153333#0 153333#1 153333#2 -153412#9 -153412#8 -153412#7 -153412#6 -153412#5 -153412#4 -153412#3 -153412#2 -153412#1 -153412#0 153425#3 153425#4 152256#0 152256#1 -153442#6 -153442#5 -153442#4 -153442#3 -153442#2 -153442#1 -153442#0 153337#0 153337#1 153337#2 153337#3 153337#4 153337#5 153337#6 152837#0 -152835#1 -152835#0"/>
    </vehicle>
    <vehicle id="special_2-1_77" type="special" depart="18577" departLane="best" arrivalPos="random">
        <route edges="153412#1 153412#2 153412#3 153412#4 153412#5 153412#6 153412#7 153412#8 153412#9 -153333#2 -153333#1 -153333#0 -153417#1 -153417#0 153415#14 153415#15 153415#16 152999 153001 152708#0 152708#1 152708#2 152708#3 152703#3 152703#4 152703#5 152705 152706 152669#1 152669#2 152669#3 152669#4 152669#5 152669#6 152669#7 152669#8 152669#9 152669#10 152669#11 152607#1 152607#2 152170 152224 152455 152456#1 152456#2 152456#3 152608#0 152608#1"/>
    </vehicle>
    <vehicle id="special_1-2_193" type="special" depart="18583" departLane="best" arrivalPos="random">
        <route edges="-152813 152387#0 -152833#0 152818#4 152818#5 -152812#2 -152812#1 -152806 152941#1 152941#2 152548 -152769#2 -152782 -152708#3 -152708#2 -152708#1 -152708#0 -153001 -152999 -153415#16 -153415#15 -153415#14 153417#0 153417#1 153333#0 153333#1 153333#2 -153412#9 -153412#8 -153412#7 -153412#6 -153412#5 -153412#4 -153412#3 -153412#2 -153412#1 -153412#0 -153425#2 -153425#1"/>
    </vehicle>
    <vehicle id="special_3-1_171" type="special" depart="18584" departLane="best" arrivalPos="random">
        <route edges="-152257 153462 -153462 152257 153461#0 153461#1 153460#1 153007#0 153007#1 152236 153340 153643 152331#0 152406 152331#2 152331#3 152331#4 152331#5 152331#6 152331#7 152167 152169#0 152169#1 152400#1 152400#2 152903#0 152903#1 152990 152816#0 152816#1 152816#2 152816#3 152816#4 152816#5 152816#6 152816#7 152816#8 152816#9 152816#10 152816#11 152761 152231 152787#0 152821 152946#2 152235 152703#0 152703#1 152703#2 152703#3 152703#4 152703#5 152705 152706 152659#0 152659#1 152659#2 -152679#5 -152679#4 -152679#3 -152679#2 -152679#1 -152679#0 152656#0 152656#1 152656#2 152536#0 152536#2 152536#4 152536#5 152536#6 152536#7 -152348#1 152462 -152461#0"/>
    </vehicle>
    <vehicle id="special_2-1_194" type="special" depart="18655" departLane="best" arrivalPos="random">
        <route edges="-153010#6 -153010#5 -153010#4 -153010#3 -153010#2 -153465 153465 153010#2 153010#3 153010#4 153010#5 153010#6 153010#7 152403#2 152940#0 152940#1"/>
    </vehicle>
    <vehicle id="special_1-2_126" type="special" depart="18737" departLane="best" arrivalPos="random">
        <route edges="152425 152207 -152386 -152294 152796 152293 152802 152292 152763 152291 152288 152656#1 152656#2 152656#3 152656#4 152672#3 152679#0 152679#1 152679#2 152679#3 152679#4 152679#5 152652#0 152674#1 152674#2 -152382 -152718 -152769#3 -152769#2 -152782 -152708#3 -152708#2 152709#0 152709#1 153406#1 153406#2 153406#3 153406#4 153406#5 153406#6 153406#7 153406#8 153005#0 153005#1 153006"/>
    </vehicle>
    <vehicle id="special_1-1_292" type="special" depart="18793" departLane="best" arrivalPos="random">
        <route edges="-152783 152667 152777#3 152777#4 152777#5 -152704#1 -152704#0 152669#1 152669#2 152669#3 152669#4 152669#5 152669#6 152669#7 152669#8 152669#9 152669#10 152669#11 152607#1 152607#2 152170 152224 152455 152456#1 -152584#4 -152584#3 -152584#2 -152592#2 -152592#1 -152592#0 153493#0 153493#1 153493#2 -152314 -152594 152594 152314 -153493#2 -153493#1 -153493#0"/>
    </vehicle>
    <vehicle id="special_1-3_132" type="special" depart="18822" departLane="best" arrivalPos="random">
        <route edges="152786#0 -152800 -152785#0 -152807#1 152833#2 152306 152313#0 152313#1 152313#2 -152310 152319#1 152319#2 -152309 152282 152532 -152331#7 -152331#6 -152331#5 -152331#4 -152331#3 -152331#2 -152331#1 -152331#0 153639 153636#1 153638#1 153004#0 153004#1 -153460#1 -153460#0 -153459"/>
    </vehicle>
    <vehicle id="special_1-1_8" type="special" depart="18884" departLane="best" arrivalPos="random">
        <route edges="152207 -152386 -152294 152796 152293 152802 152292 152763 152291 152288 152656#1 152656#2 152656#3 152656#4 152672#3 152679#0 152679#1 152679#2 152679#3 152679#4 152679#5 152652#0 152674#1 152674#2 -152382 -152718 -152769#3 -152769#2 -152769#1 -152769#0 -152703#0 152230 152945#0 152945#1 -152816#11 -152947#2 -152947#1 -152947#0 153554#1 153554#2 152872#0 152872#1 152872#2 152872#3 -152834#6 -152834#5"/>
    </vehicle>
    <vehicle id="special_3-1_205" type="special" depart="18884" departLane="best" arrivalPos="random">
        <route edges="153454#0 153454#1 153454#2 153453#1 153453#2 153453#3 153453#4 153453#5 153453#6 153453#7 153435#1 152736#0 -152738#2 -152738#1 -152738#0 153393#0 153393#1 153394#1 153389#1 153389#2 -152630#1 -152630#0 -153386#1 -153386#0 -152178 -152177#2 -152177#1 -152177#0 153385#1 153385#2 153385#3 153385#4 153385#5 -152247 153371#0 153371#1 152246 152567 152308 -153374#4 -153374#3 -153374#2 153482#0 153482#1 153482#2 153482#3 153482#4 153482#5 153482#6 153482#7 152587#1 152351 152584#0 152584#1 152584#2 152584#3 152584#4 152456#2 152456#3 152456#4 152456#1 -152584#4"/>
    </vehicle>
    <vehicle id="special_1-2_186" type="special" depart="18936" departLane="best" arrivalPos="random">
        <route edges="153558 153556#3 153001 152708#0 152708#1 152708#2 152708#3 152703#3 152703#4 152703#5 152705 152706 152669#1 152669#2 152669#3 152669#4 152669#5 152669#6 152669#7 152669#8 152669#9 152669#10 152669#11 152607#1 152607#2 152170 152224 152455 152456#1 -152584#4 -152584#3 -152584#2 -152584#1 -152584#0 152578 152220 153367#0 153367#1 153367#3 153367#4 153325#0 153325#1 153325#2 153325#3 153325#4 153361#0 153361#1 153356#0 153356#1 153356#2 153359#2 -152959 -152284 152556 153658 152284 -152557"/>
    </vehicle>
    <vehicle id="special_2-1_204" type="special" depart="18977" departLane="best" arrivalPos="random">
        <route edges="-153464#4 -153464#3 -153464#2 -153464#1 -153464#0 -153478#13 -153478#12 -153478#11 -153478#10 -153478#9 -153478#8 -153478#7 -153478#6 -153478#5 -153478#3 -153478#2 -153478#1 152897#1 152897#2 152984#0 152984#1 152984#2 152984#3 -152902#1 -152902#0 152977#3 152977#4 152885#0 152885#1 152885#2 152876#5 152876#0 152876#1 152877#0"/>
    </vehicle>
    <vehicle id="special_1-2_205" type="special" depart="18992" departLane="best" arrivalPos="random">
        <route edges="152298#1 152969 152818#2 152818#3 152818#4 152818#5 -152812#2 -152812#1 -152806 152941#1 152941#2 152548 -152769#2 -152782 -152708#3 -152708#2 -152708#1 -152708#0 -153001 -152999 -153415#16 -153415#15 -153415#14 153417#0 153417#1 153333#0 153333#1 153333#2 -153412#9 -153412#8 -153412#7 -153412#6 -153412#5 -153412#4 -153412#3 -153412#2 -153412#1 -153412#0 -153425#2 -153425#1 -153423#4 -153423#3 -153423#2 152370 -152147 153423#2 153423#3"/>
    </vehicle>
    <vehicle id="special_1-3_220" type="special" depart="18997" departLane="best" arrivalPos="random">
        <route edges="-152950#0 152674#2 -152777#0 152812#0 152812#1 152812#2 152822 152962#1 152962#2 152962#3 152962#4 152306 152313#0 152313#1 152313#2 -152310 152319#1 152319#2 -152309 152282 152532 -152331#7 -152331#6 -152331#5 -152331#4 -152331#3 -152331#2 -152331#1 -152331#0 153639 152407 -153009#6 -153458#6 -153458#5 -153458#4 -153458#3 -153458#2 -153458#1 -153458#0 -153453#4 -153453#3 -153453#2 -153453#1 -153453#0 -153454#1 153459"/>
    </vehicle>
    <vehicle id="special_1-1_259" type="special" depart="19016" departLane="best" arrivalPos="random">
        <route edges="152812#2 152789#0 152789#1 152422 -153550#0 -152936 -152789#0 -152812#2 -152812#1 -152806 152941#1 152941#2 152941#4 152941#5 -152704#1 -152704#0 152669#1 152669#2 152669#3 152669#4 152669#5 152669#6 152669#7 152669#8 152669#9 152669#10 152654#0 152654#1 -152355#0 152354#3 -152515#1 -152608#9 -152608#8 -152608#7 -152939#4"/>
    </vehicle>
    <vehicle id="special_1-3_253" type="special" depart="19055" departLane="best" arrivalPos="random">
        <route edges="-152591 -152285 152596 -152943#3 -152943#2 -152943#1 -152943#0 152967#0 152967#1 152320 -152617#2 -152617#1 -152617#0 152456#3 152608#0 152608#1 -152619 -152612 152604 152609 152364#3 152364#0 152364#1 -152671#1 -152671#0 -152227 -152291 -152763 -152292 -152802 -152293 -152796 152294 152386 -152207 152463 152312 152313#2 -152310 152319#1 152319#2 152319#3 152140 152138#0 152139 152970 -152271 -152420 -152960 153478#1 153478#2 153478#3 153478#5 153478#6 153478#7 153478#8 153478#9 153478#10 153478#11 153478#12 153478#13 153478#14 153478#15 153478#16 153478#17 153478#18 153478#19 153478#20 153478#22 153478#23 153478#24 153478#25 153478#26 -152304 -153344 -152303 -153479#1 -153479#0 -152258 -152929"/>
    </vehicle>
    <vehicle id="special_3-1_95" type="special" depart="19090" departLane="best" arrivalPos="random">
        <route edges="-153460#0 -153461#0 -152257 153462 -153462 152257 153461#0 153461#1 153460#1 153007#0 153007#1 152236 153340 153643 152331#0 152406 152331#2 152331#3 152331#4 152331#5 152331#6 152331#7 152167 -153008#3 -153008#2 -153008#1 -153008#0 -152901#1 -152901#0 152403#0 152403#1 152403#2 152940#0 152940#1 152940#2 152421#1 152309 152319#3 152140 152138#0 152138#1 152138#2 152138#3 152138#4 152138#5 152823#0 152828 152820#2 152820#3 152820#4 152390 152470 152297 153642 153641"/>
    </vehicle>
    <vehicle id="special_1-2_51" type="special" depart="19091" departLane="best" arrivalPos="random">
        <route edges="152672#1 152672#2 152672#3 152672#4 152283 -152291 -152763 -152292 -152802 -152293 -152796 152294 152386 -152207 152463 152312 152313#2 -152310 152319#1 152319#2 152319#3 152140 152138#0 152139 152970 -152271 -152420 -152960 153478#1 -153452 -153455#1"/>
    </vehicle>
    <vehicle id="special_3-1_254" type="special" depart="19103" departLane="best" arrivalPos="random">
        <route edges="153459 153461#1 153460#1 153007#0 153007#1 152236 153340 153643 152331#0 152406 152331#2 152331#3 152331#4 152331#5 152331#6 152331#7 152167 152169#0 152169#1 152400#1 152400#2 152903#0 152903#1 152990 152816#0 152816#1 152816#2 152816#3 152816#4 152816#5 152816#6 152816#7 152816#8 152816#9 152816#10 152816#11 152761 152231 152787#0 152821 152946#2 152235 152703#0 152703#1 152703#2 -152708#3 -152708#2 152717 152713#0 152714 152493#5 -152695#1"/>
    </vehicle>
    <vehicle id="special_1-3_74" type="special" depart="19113" departLane="best" arrivalPos="random">
        <route edges="-152882#0 -152884 -152883 -152886#1 -152886#0 -152887 152891 -152863 -152862 152778 152819#0 152819#1 152819#2 152819#3 152961#5 152961#1 152961#2 152961#3 -152823#2 -152823#1 -152823#0 152138#6 152138#7 -152140 152319#4 152319#1 152319#2 -152309 152282 152532 -152331#7 -152331#6 -152331#5 -152331#4 -152331#3 -152331#2 -152331#1 -152331#0 153639 152407 -153009#6 -153458#6 -153458#5 -153458#4 -153458#3 -153458#2 -153458#1 -153458#0 153453#5 153437#0 153437#1 153437#2 153437#3 152418#1 152415#0 152415#1 -152758#2 -152758#1 -152758#0"/>
    </vehicle>
    <vehicle id="special_1-3_134" type="special" depart="19119" departLane="best" arrivalPos="random">
        <route edges="152777#0 -152382 152667 -152777#2 -152777#0 152812#0 152812#1 152812#2 152822 152962#1 152962#2 152962#3 152962#4 152306 152313#0 152313#1 152313#2 -152310 152319#1 152319#2 -152309 152282 152532 -152331#7 -152331#6 -152331#5 -152331#4 -152331#3 -152331#2 -152331#1 -152331#0 153639 153636#1 153638#1 153004#0 152840 153007#1 152236 153340 153643"/>
    </vehicle>
    <vehicle id="special_1-1_217" type="special" depart="19134" departLane="best" arrivalPos="random">
        <route edges="153554#3 153554#0 152947#0 152947#1 152947#2 152816#11 152761 152231 152787#0 152787#1 152787#2 152168 152971#0 152971#1 152971#2 152971#3 -152797#1 152826#0 152826#1 152138#7 152138#0 152139 152970 -152271 -152420 -152960 152897#1 152897#2 152984#0 152984#1 152984#2 -152985 152875#0 152875#1 152875#2 152875#3 152299 -152648 -152399#1"/>
    </vehicle>
    <vehicle id="special_2-1_191" type="special" depart="19141" departLane="best" arrivalPos="random">
        <route edges="152853#2 -152933#1 153009#0 153009#2 153009#3 153009#4 153009#5 153009#6 152408 153638#1 153004#0 152840 153007#1 152236 153340 153643 152331#0 152406 152331#2 152331#3 152331#4 152331#5 152331#6 152331#7 152167 -153008#3 -153008#2 -153008#1 -153008#0 -152901#1 -152901#0 152403#0 152403#1 152403#2 152940#0 152940#1 152940#2 152421#1 152309 152319#3 152140 152138#0 152138#1 152138#2 152138#3 152138#4 152138#5 152823#0 152828 152820#2 152820#3 152820#4 152818#0 152818#1 152818#2 152818#3"/>
    </vehicle>
    <vehicle id="special_1-3_298" type="special" depart="19147" departLane="best" arrivalPos="random">
        <route edges="152468#1 152945#0 152945#1 -152816#11 -152816#10 -152816#9 -152816#8 -152816#7 -152816#6 -152816#5 -152816#4 -152816#3 -152816#2 -152816#1 -152816#0 152991 -152903#1 -152903#0 152400#3 152400#0 -152169#1 -152169#0 -152167 -152331#7 -152331#6 -152331#5 -152331#4 -152331#3 -152331#2 -152331#1 -152331#0 153639 153636#1 153638#1 153004#0 153004#1 -153460#1 -153460#0 -153461#0 -152257 153462 -153462 152257 153461#0 153461#1"/>
    </vehicle>
    <vehicle id="special_2-1_69" type="special" depart="19176" departLane="best" arrivalPos="random">
        <route edges="-152973#4 -152973#3 -152973#2 -152973#1 -152973#0 152710#1 152708#3 152703#3 152703#4 152703#5 152705"/>
    </vehicle>
    <vehicle id="special_1-3_159" type="special" depart="19178" departLane="best" arrivalPos="random">
        <route edges="152860 -152399#4 -152399#3 -152399#2 152648 -152299 -152875#3 -152875#2 -152875#1 -152875#0 152985 152984#3 152984#4 152975 -152897#1 -153478#0 152420 152271 152421#0 152421#1 152282 152532 -152331#7 -152331#6 -152331#5 -152331#4 -152331#3 -152331#2 -152331#1 -152331#0 153639 153636#1 153638#1 153004#0 153004#1 -153460#1"/>
    </vehicle>
    <vehicle id="special_2-1_187" type="special" depart="19191" departLane="best" arrivalPos="random">
        <route edges="-153464#1 -153464#0 -153478#13 -153478#12 -153478#11 -153478#10 -153478#9 -153478#8 -153478#7 -153478#6 -153478#5 -153478#3 -153478#2 -153478#1 152897#1 152897#2 152984#0 152984#1 152984#2 -152985 152875#0 152875#1"/>
    </vehicle>
    <vehicle id="special_1-2_197" type="special" depart="19193" departLane="best" arrivalPos="random">
        <route edges="-152294 152796 152293 152802 152292 152763 152291 152288 152656#1 152656#2 152656#3 152656#4 152672#3 152679#0 152679#1 152679#2 152679#3 152679#4 152679#5 152652#0 152674#1 152674#2 -152382 -152718 -152769#3 -152769#2 -152782 -152708#3 -152708#2 -152708#1 -152708#0 -153001 -152999 -153415#16 -153415#15 -153415#14 153417#0 153417#1 153333#0 153333#1 153333#2 153333#4 153333#5 153333#6 153333#7 153333#8 153333#9 153333#10 153333#11 153331#4 153331#5 -153414#4 -153414#3 -153422#7 -153422#6 -153422#5"/>
    </vehicle>
    <vehicle id="special_2-1_17" type="special" depart="19203" departLane="best" arrivalPos="random">