<?xml version="1.0" encoding="UTF-8"?>

<!--
    Monaco SUMO Traffic (MoST) Scenario
    Copyright (C) 2018
    Lara CODECA

    This program is free software: you can redistribute it and/or modify
    it under the terms of the GNU General Public License as published by
    the Free Software Foundation, either version 3 of the License, or
    (at your option) any later version.

    This program is distributed in the hope that it will be useful,
    but WITHOUT ANY WARRANTY; without even the implied warranty of
    MERCHANTABILITY or FITNESS FOR A PARTICULAR PURPOSE.  See the
    GNU General Public License for more details.

    You should have received a copy of the GNU General Public License
    along with this program.  If not, see <http://www.gnu.org/licenses/>.
-->

<routes xmlns:xsi="http://www.w3.org/2001/XMLSchema-instance" xsi:noNamespaceSchemaLocation="http://sumo.dlr.de/xsd/routes_file.xsd"> 
    <vehicle id="special_1-1_185" type="special" depart="18005" departLane="best" arrivalPos="random">
        <route edges="152870 152937 152808 -152805 -152801 -152762 -152765 152778 152819#0 152819#1 152819#2 152819#3 152961#5 152781 152820#0 152820#1 152820#2 152820#3 152820#4 152818#0 152818#1 152818#2 152818#3 152818#4 152818#5 -152812#2 -152812#1 -152806 152941#1 152941#2 152941#4 152941#5 -152704#1 -152704#0 152669#1 152669#2 152669#3 152669#4 152669#5 152669#6 152669#7 152669#8 152669#9 152669#10 152669#11 152607#1 152607#2 152170 152224 152455 152456#1"/>
    </vehicle>
    <vehicle id="special_1-1_168" type="special" depart="18009" departLane="best" arrivalPos="random">
        <route edges="-152971#0 -152168 152946#1 152946#2 152235 152703#0 152769#0"/>
    </vehicle>
    <vehicle id="special_1-2_156" type="special" depart="18034" departLane="best" arrivalPos="random">
        <route edges="-153560 153561#1 153561#2 153561#3 -152880 152885#1 152885#2 152876#5 152876#0 152876#1 152876#2 153640 152298#0 152298#0-AddedOffRampEdge 152298#1 152969 152818#2 152818#3 152818#4 152818#5 -152812#2 -152812#1 -152806 152941#1 152941#2 152548 -152769#2 -152782 -152708#3 -152708#2 -152708#1 -152708#0 -153001 -152999 -153415#16 -153415#15 -153415#14 153417#0 153417#1 153333#0 153333#1 153333#2 153333#4 153333#5 153333#6 153333#7 153333#8 153333#9 153333#10 153333#11 153331#4 153331#5 153414#5 152252 153387#0 153387#1 152251 153385#0 -153388 152177#1 152177#2 152178 153386#0 153386#1 153386#2 152630#1 -153389#2 -153389#1 -153389#0"/>
    </vehicle>
    <vehicle id="special_2-1_94" type="special" depart="18058" departLane="best" arrivalPos="random">
        <route edges="-152814#0 -153443#0 -153447#1 -153447#0 -153406#8 -153406#7 -153406#6 -153406#5 -153406#4 -153406#3 -153406#2 -153406#1 -153406#0 -152709#0 152708#2 152708#3 152703#3 152703#4 152703#5 152705 152706 152669#1 152669#2 152669#3 152669#4 152669#5 152669#6 152669#7 152669#8 152669#9 152669#10"/>
    </vehicle>
    <vehicle id="special_2-1_132" type="special" depart="18096" departLane="best" arrivalPos="random">
        <route edges="-153417#2 -153417#1 -153417#0 153415#14 153415#15 153415#16 152999 153001 152708#0 152708#1 152708#2 152708#3 -152703#2 -152703#1 -152703#0 152230 152945#0 152945#1 -152816#11 -152947#2 -152947#1 -152947#0 153554#1 153554#2 152872#0 152872#1 152872#2 152872#3 152872#4 152872#5 -152901#1 -152901#0"/>
    </vehicle>
    <vehicle id="special_3-1_96" type="special" depart="18123" departLane="best" arrivalPos="random">
        <route edges="-152929 -152305 -153480 153480 152305 152929 152258 153479#0 153479#1 152303 153344 152304 -153478#26 -153478#25 -153478#24 -153478#23 -153478#22 -153478#20 -153478#19 -153478#18 -153478#17 -153478#16 -153478#15 -153478#14 -153478#13 -153478#12 -153478#11 -153478#10 -153478#9 -153478#8 -153478#7 -153478#6 -153478#5 -153478#3 -153478#2 -153478#1 -153478#0 152420 152271 152421#0 152421#1 152309 152319#3 152319#4 152310 152313#3 -152306 -152833#2 -152833#1 -152387#0 152813 152818#5 -152812#2 -152812#1 -152806 152941#1 152941#2 152941#4 152941#5 -152704#1 -152704#0 152669#1 152669#2 152669#3 152669#4 152669#5 152669#6 152669#7 152669#8 152669#9 152669#10 152669#11 152607#1 152607#2 152170 152224 152455 152456#1 152456#2 152617#0 152617#1 152617#2 -152320 -152967#1 152457 152458#0 152458#1"/>
    </vehicle>
    <vehicle id="special_2-1_78" type="special" depart="18134" departLane="best" arrivalPos="random">
        <route edges="-152904#0 152403#1 152403#2 152403#3 152901#0 152901#1 152901#2 -152872#4 -152872#3 -152872#2 -152872#1 -152872#0 153554#3 153554#0 153554#1 -152784 -152803 -152816#8 -152814#5"/>
    </vehicle>
    <vehicle id="special_1-3_68" type="special" depart="18195" departLane="best" arrivalPos="random">
        <route edges="-152399#1 -152399#0 152460#3 152460#0 -152968#1 -152968#0 -152888#0 152977#4 152977#1 -153562 152900#0 152900#1 152900#2 -152300 152859 152138#3 152138#4 152138#5 152138#6 152138#7 -152140 152319#4 152319#1 152319#2 -152309 152282 152532 -152331#7 -152331#6 -152331#5 -152331#4 -152331#3 -152331#2 -152331#1 -152331#0 153639 153636#1 153638#1 153004#0 153004#1 -153460#1 -153460#0 -153459"/>
    </vehicle>
    <vehicle id="special_1-2_160" type="special" depart="18235" departLane="best" arrivalPos="random">
        <route edges="-152938 -152507 -152868 152891 -152863 -152862 152778 152819#0 152819#1 152819#2 152819#3 152961#5 152781 152820#0 152820#1 152820#2 152820#3 152820#4 152818#0 152818#1 152818#2 152818#3 152818#4 152818#5 -152812#2 -152812#1 -152806 152941#1 152941#2 152548 -152769#2 -152782 -152708#3 -152708#2 -152708#1 -152708#0 -153001 -152999 -153415#16 -153415#15 -153415#14 153417#0 153417#1 153333#0 153333#1 153333#2 153333#4 153333#5 153333#6 153333#7 153333#8 153333#9 153333#10 153333#11 153331#4 153331#5 153414#5 152252 153387#0 153387#1 152251 153385#0 153385#1 153385#2 153025#0 153025#1 153025#2 153025#3 153376#1 153376#2 153376#3 153376#4 153376#5 153376#6"/>
    </vehicle>
    <vehicle id="special_2-1_42" type="special" depart="18238" departLane="best" arrivalPos="random">
        <route edges="-153464#0 -153478#13 -153478#12 -153478#11 -153478#10 -153478#9 -153478#8 -153478#7 -153478#6 -153478#5 -153478#3 -153478#2 -153478#1 152897#1 152897#2 152984#0 152984#1 152896#0 152896#1 152875#1 152875#2 152164#0 152164#1"/>
    </vehicle>
    <vehicle id="special_1-2_97" type="special" depart="18286" departLane="best" arrivalPos="random">
        <route edges="-152668 152670#1 152670#2 152716 152175#0 152175#1 -152703#5 -152703#4 -152703#3 -152708#3 -152708#2 -152708#1 -152708#0 -153001 -152999 -153415#16 -153415#15 -153415#14 153417#0 153417#1 153333#0 153333#1 153333#2 -153412#9 -153412#8 -153412#7 -153412#6 -153412#5 -153412#4 -153412#3 -153412#2 -153412#1 -153412#0 -153425#2 -153425#1 -152727#3 -152727#2 -152727#1 -152727#0 152727#0 152727#1"/>
    </vehicle>
    <vehicle id="special_1-1_109" type="special" depart="18373" departLane="best" arrivalPos="random">
        <route edges="152458#1 -152457 152967#1 152320 -152617#2 -152617#1 -152617#0 152456#3 152608#0 152608#1 -152619 -152612 152604 152609 152364#3 152364#0 152364#1 -152671#1 -152671#0 -152227 -152291 -152763 -152292 -152802 -152293 -152796 152294 152386 -152207 152463 152312 152313#2 -152310 152319#1 152319#2 -152309 152282 152532 -152331#7 -152331#6 152409 -152409 152331#6 152331#7 152167 -153008#3 -153008#2 -153008#1 -153008#0"/>
    </vehicle>
    <vehicle id="special_3-1_104" type="special" depart="18379" departLane="best" arrivalPos="random">
        <route edges="153480 152305 152929 152258 153479#0 153479#1 152303 153344 152304 -153478#26 -153478#25 -153478#24 -153478#23 -153478#22 -153478#20 -153478#19 -153478#18 -153478#17 -153478#16 -153478#15 -153478#14 -153478#13 -153478#12 -153478#11 -153478#10 153010#0 153010#1 153010#2 153010#3 153010#4 153010#5 153010#6 153010#7 152403#2 152403#3 152901#0 152901#1 152901#2 -152872#4 -152872#3 -152872#2 -152872#1 -152872#0 153554#3 153554#0 153554#1 -152784 -152803 -152816#8 -152816#7 -152816#6 -152816#5 -152816#4"/>
    </vehicle>
    <vehicle id="special_1-3_194" type="special" depart="18394" departLane="best" arrivalPos="random">
        <route edges="152678#2 152474#0 152474#1 -152474#1 -152474#0 -152678#2 -152678#1 -152678#0 152679#4 152679#5 152652#0 152674#1 152674#2 -152777#0 152812#0 152812#1 152812#2 152822 152962#1 152962#2 152962#3 152962#4 152962#5 152962#6 152962#7 152962#8 152962#10 152961#2 152961#3 -152823#2 -152823#1 -152823#0 152138#6 152138#7 152138#0 152139 152970 -152271 -152420 -152960 153478#1 153478#2 153478#3 153478#5 153478#6 153478#7 153478#8 153478#9 153478#10 153478#11 153478#12 153478#13 153478#14 153478#15 153478#16 153478#17 153478#18 153478#19 153478#20 153478#22 153478#23 153478#24 153478#25 153478#26 -152304 -153344 -152303 -153479#1 -153479#0 -152258 -152929 -152305 -153480 153480 152305 152929"/>
    </vehicle>
    <vehicle id="special_3-1_150" type="special" depart="18448" departLane="best" arrivalPos="random">
        <route edges="152905 153479#1 152303 153344 152304 -153478#26 -153478#25 -153478#24 -153478#23 -153478#22 -153478#20 -153478#19 -153478#18 -153478#17 -153478#16 -153478#15 -153478#14 -153478#13 -153478#12 -153478#11 -153478#10 153010#0 153010#1 153010#2 153010#3 153010#4 153010#5 153010#6 153010#7 152403#2 152403#3 152901#0 152901#1 152901#2 -152872#4 -152834#6 -152834#5 -152834#4 -152834#3 -152834#2 -152834#1 -152794#1 -152794#0 -152825#3 -152825#2 -152825#1"/>
    </vehicle>
    <vehicle id="special_1-2_154" type="special" depart="18485" departLane="best" arrivalPos="random">
        <route edges="153407#1 153407#2 153407#3 153408#0 153408#1 153408#2 152942 152686 152175#1 -152703#5 -152703#4 -152703#3 -152703#2 -152703#1 -152703#0 152230 152945#0 152945#1 -152816#11 -152816#10 -152816#9 -152816#8 -152816#7 -152816#6 -152816#5 -152816#4 -152816#3 -152816#2 -152816#1 -152816#0 152991 -152903#1 -152903#0 152400#3 152400#0 -152169#1 -152169#0 -152167 -152331#7 -152331#6 -152331#5 -152331#4 -152331#3 -152331#2 -152331#1 -152331#0 -152411#3 -153456#1 -153456#0 153456#0 153456#1 152411#3"/>
    </vehicle>
    <vehicle id="special_1-2_152" type="special" depart="18495" departLane="best" arrivalPos="random">
        <route edges="152875#1 152397#0 152397#1 152397#2 152460#2 152460#3 152460#0 -152968#1 -152968#0 -152888#0 152977#4 152977#1 -153562 152976"/>
    </vehicle>
    <vehicle id="special_1-2_69" type="special" depart="18556" departLane="best" arrivalPos="random">
        <route edges="152387#0 -152833#0 152818#4 152818#5 -152812#2 -152812#1 -152806 152941#1 152941#2 152548 -152769#2 -152782 -152708#3 -152708#2 152709#0 152709#1 153406#1 153406#2 153406#3 153406#4 153406#5 153406#6 153406#7 153406#8 153447#0"/>
    </vehicle>
    <vehicle id="special_1-1_87" type="special" depart="18663" departLane="best" arrivalPos="random">
        <route edges="152838#3 152838#4 152838#5 152838#6 152816#3 152816#4 152816#5 152816#6 152816#7 152816#8 152816#9 152816#10 152816#11 152761 152231 152787#0 152787#1 152787#2 152168 152971#0 152971#1 152971#2 152971#3 152989#0 152989#1 152834#0 152834#1 152834#2 152834#3 152834#4 152834#5 152834#6 -152872#3 -152872#2 -152872#1"/>
    </vehicle>
    <vehicle id="special_3-1_204" type="special" depart="18713" departLane="best" arrivalPos="random">
        <route edges="153396#2 -152481 152481 -153396#2 -153396#1 -153396#0 -152415#2 -152415#1 -152415#0 152414 152446#1 -153437#3 -153437#2 -153437#1 -153437#0 153453#6 153453#7 153435#1 152736#0 -152738#2 -152738#1 -152738#0 153393#0 153393#1 153394#1 153389#1 153389#2 -152630#1 -152630#0 -153386#1 -153386#0 -152178 -152177#2 -152177#1 -152177#0 -153385#0 -152251 -153387#1 -153387#0 -152252 -153414#5 -153331#5 -153331#4 -153333#11 -153333#10 -153333#9 -153333#8 -153333#7 -153333#6 -153333#5 -153333#4 -153333#2 -153333#1 -153333#0 -153417#1 -153417#0 -153415#13 -153415#12 -153415#11 -153415#10 -153415#9 -153415#8 -153415#7 -153415#6 -153415#5"/>
    </vehicle>
    <vehicle id="special_3-1_181" type="special" depart="18722" departLane="best" arrivalPos="random">
        <route edges="153459 153461#1 153460#1 153007#0 153007#1 152236 153340 153643 152331#0 152406 152331#2 152331#3 152331#4 152331#5 152331#6 152331#7 152167 152169#0 152169#1 152400#1 152400#2 152903#0 152903#1 152321 152404 -152960 152897#1 152897#2 152984#0 152984#1 152984#2 -152985 -152888#1 152968#0 152968#1 152460#1 -152397#2 -152397#1 -152397#0 -152875#1"/>
    </vehicle>
    <vehicle id="special_1-3_108" type="special" depart="18771" departLane="best" arrivalPos="random">
        <route edges="152651#4 152651#5 153408#0 153408#1 153408#2 152942 152686 152175#1 -152703#5 -152703#4 -152703#3 -152703#2 -152703#1 -152703#0 152230 152945#0 152945#1 -152816#11 -152816#10 -152816#9 -152816#8 -152816#7 -152816#6 -152816#5 -152816#4 -152816#3 -152816#2 -152816#1 -152816#0 152991 -152903#1 -152903#0 152400#3 152400#0 -152169#1 -152169#0 -152167 -152331#7 -152331#6 -152331#5 -152331#4 -152331#3 -152331#2 -152331#1 -152331#0 153639 153636#1 153638#1 153004#0 153004#1 -153460#1 -153460#0 -153461#0 -152257 153462 -153462 152257 153461#0 153461#1"/>
    </vehicle>
    <vehicle id="special_1-2_28" type="special" depart="18774" departLane="best" arrivalPos="random">
        <route edges="152825#1 152825#2 152825#3 152794#0 152794#1 -152834#0 -152989#1 -152989#0 -152971#3 -152971#2 -152971#1 -152971#0 -152168 152946#1 152946#2 152235 152703#0 152703#1 152703#2 -152708#3 -152708#2 -152708#1 -152708#0 -153001 -152999 -153415#16 -153415#15 -153415#14 153417#0 153417#1 153333#0 153333#1 153333#2 153333#4 153333#5 153333#6 153333#7 153333#8 153333#9 153333#10 153333#11 -153331#3 -153331#2"/>
    </vehicle>
    <vehicle id="special_3-1_113" type="special" depart="18836" departLane="best" arrivalPos="random">
        <route edges="153459 153461#1 153460#1 153007#0 153007#1 152236 153340 153643 152331#0 152406 152331#2 152331#3 152331#4 152331#5 152331#6 152331#7 152167 152169#0 152169#1 152400#1 152400#2 152903#0 152903#1 152990 152816#0 152816#1 152816#2 152816#3 152816#4 152816#5 152816#6 152816#7 152816#8 152816#9 152816#10 152816#11 152761 152231 152787#0 152821 152946#2 152235 152703#0 152703#1 152703#2 152703#3 152703#4 152703#5 152705 152707#0 152707#1 152176 152680 152544 152649#0 152650#0 152650#1 152650#2 152650#3 152650#4 152650#5 152650#6 152354#2 152354#3 152354#4 152354#1 -152650#6"/>
    </vehicle>
    <vehicle id="special_3-1_127" type="special" depart="18845" departLane="best" arrivalPos="random">
        <route edges="153397 152254 -153438 153438 -152254 -153397 -152253 -152415#3 -152415#2 -152415#1 -152415#0 152414 152446#1 -153437#3 -153437#2 -153437#1 -153437#0 153453#6 153453#7 153435#1 152736#0 -152738#2 -152738#1 -152738#0 153393#0 153393#1 153394#1 153389#1 153389#2 -152630#1 -152630#0 -153386#1 -153386#0 -152178 -152177#2 -152177#1 -152177#0 -153385#0 -152251 -153387#1 -153387#0 -152252 -153414#5 -153331#5 -153331#4 -153333#11 -153333#10 -153333#9 -153333#8 -153333#7 -153333#6 -153333#5 -153333#4 -153333#2 -153333#1 -153333#0 -153417#1 -153417#0 153415#14 153415#15 153415#16 152999 153001 152708#0 152708#1 152708#2 152708#3 152703#3 152703#4 152703#5 152705 152706 152669#1 152669#2 152669#3 152669#4 152669#5 152669#6 152669#7 152669#8 152669#9 152669#10 152669#11 152607#1"/>
    </vehicle>
    <vehicle id="special_3-1_42" type="special" depart="18853" departLane="best" arrivalPos="random">
        <route edges="-153462 152257 153461#0 153461#1 153460#1 153007#0 153007#1 152236 153340 153643 152331#0 152406 152331#2 152331#3 152331#4 152331#5 152331#6 152331#7 152167 -153008#3 -153008#2 -153008#1 -153008#0 -152901#1 -152901#0 152403#0 152403#1 152403#2 152940#0 152940#1 152940#2 152421#1 152309 152319#3 152319#4 152310 152313#3 -152306 -152833#2 -152833#1 -152387#0 152813 152818#5"/>
    </vehicle>
    <vehicle id="special_3-1_196" type="special" depart="18865" departLane="best" arrivalPos="random">
        <route edges="152415#3 152253 153397 152254 -153438 153438 -152254 -153397 -152253 -152415#3 -152415#2 -152415#1 -152415#0 152414 -152539 152930#4 152413 152533 152329#1 152289 152857 152211 152538 152395 153643 152331#0 152406 152331#2 152331#3 152331#4 152331#5 152331#6 152331#7 152167 -153008#3 -153008#2 -153008#1 -153008#0 -152901#1 -152901#0 152403#0 152403#1 152403#2 152940#0 152940#1 152940#2 152421#1 152309 152319#3 152140 152138#0 152138#1 152138#2 152138#3 152138#4 152138#5 152823#0 152828 152820#2 152820#3 152820#4 152390 152470 152297 153642 153641"/>
    </vehicle>
    <vehicle id="special_1-2_131" type="special" depart="18896" departLane="best" arrivalPos="random">
        <route edges="152894#1 -152301 152893#0 152893#1 152400#0 -152169#1 -152169#0 -152167 -152331#7 -152331#6 152409 -152409 152331#6 152331#7 152167 -153008#3 -153008#2 -153008#1 -153008#0 -152901#1 -152901#0 152403#0 152904#0 152904#1 152904#2"/>
    </vehicle>
    <vehicle id="special_1-2_99" type="special" depart="18907" departLane="best" arrivalPos="random">
        <route edges="152948 -152779 152385 152818#0 152818#1 152818#2 152818#3 152818#4 152818#5 -152812#2 -152812#1 -152806 152941#1 152941#2 152548 -152769#2 -152769#1 -152769#0 -152703#0 152230 152945#0 152945#1 -152816#11 -152816#10 -152816#9 -152816#8 -152816#7 -152816#6 -152816#5 -152816#4 -152816#3 -152838#6 -152838#5 -152838#4 -152838#3"/>
    </vehicle>
    <vehicle id="special_1-3_195" type="special" depart="18975" departLane="best" arrivalPos="random">
        <route edges="-153561#0 152889#2 152902#1 152984#4 152975 -152897#1 -153478#0 152420 152271 152421#0 152421#1 152282 152532 -152331#7 -152331#6 -152331#5 -152331#4 -152331#3 -152331#2 -152331#1 -152331#0 153639 153636#1 153638#1 153004#0 152840 153007#1 152236 153340 153643"/>
    </vehicle>
    <vehicle id="special_1-2_38" type="special" depart="19021" departLane="best" arrivalPos="random">
        <route edges="-152872#1 -152872#0 153554#3 153554#0 152947#0 152947#1 152947#2 152816#11 152761 152231 152787#0 152821 152946#2 152235 152703#0 152703#1 152703#2 -152708#3 -152708#2 -152708#1 -152708#0 -153001 -152999 -153415#16 -153415#15 -153415#14 153417#0 153417#1 153333#0 153333#1 153333#2 153333#4 153333#5 153333#6 153333#7 153333#8 153333#9 153333#10 153333#11 153331#4 153331#5 153414#5 152252 153387#0 153387#1 152251 153385#0 153385#1 153385#2 153025#0"/>
    </vehicle>
    <vehicle id="special_2-1_70" type="special" depart="19029" departLane="best" arrivalPos="random">
        <route edges="-153394#1 -153394#0 153329#0 153329#1 153329#2 153329#3 153329#4 153329#5 153329#6 153329#7 153329#8 153329#9 153329#11 153329#12 -153337#7 -153337#6 -153337#5 -153337#4 -153337#3 -153337#2 -153337#1 -153337#0 -153446#0 -153443#3 -153443#2 -153443#1 -153443#0 -153447#1 -153447#0 -153406#8 -153406#7 -153406#6 -153406#5 -153406#4 -153406#3 -153406#2 -153406#1 -153406#0 -152709#0 152708#2 152708#3 152703#3 152703#4 152703#5 152705 152706 152659#0 152659#1 152659#2 -152679#5 -152679#4 -152679#3 -152679#2 -152679#1 -152679#0 152672#4"/>
    </vehicle>
    <vehicle id="special_2-1_84" type="special" depart="19054" departLane="best" arrivalPos="random">
        <route edges="153458#2 153458#3 153458#4 153458#5 153458#6 153009#6 152408 153638#1 153004#0 152840 153007#1 152236 153340 153643 152331#0 152406 152331#2 152331#3 152331#4 152331#5 152331#6 152331#7 152167 152169#0 152169#1 152400#1 152400#2 152903#0 152903#1 152990 152816#0 152816#1 152816#2 152816#3 152816#4 152816#5 152816#6 152816#7 152816#8 152816#9 152816#10 152816#11 152761 152231 152787#0 152821 152946#2 152235 152703#0 152703#1 152703#2 152703#3 152703#4 152703#5 152705 152706 152669#1 152669#2 152669#3 152669#4 152669#5 152669#6 152669#7 152669#8 152669#9 152669#10 152669#11 152607#1 152607#2 152170 152224 152455 152456#1 152456#2 152456#3 152608#0 152608#1 152608#2 152608#3 152608#4"/>
    </vehicle>
    <vehicle id="special_1-2_187" type="special" depart="19066" departLane="best" arrivalPos="random">
        <route edges="-152589#1 -152589#0 152225 152171#0 152171#1 -152604 152170 152224 152455 152456#1 -152584#4 -152584#3 -152584#2 -152584#1 -152584#0 152578 152220 152347#1 152222 -153482#7 -153482#6 -153482#5 -153482#4 -153482#3 -153482#2 -153482#1 -153482#0 -153374#1 -153328#4 -153328#3 153363#0 153363#1 153363#2 -153363#2 -153363#1 -153363#0"/>
    </vehicle>
    <vehicle id="special_3-1_180" type="special" depart="19098" departLane="best" arrivalPos="random">
        <route edges="-152905 153460#1 153007#0 153007#1 152236 153340 153643 152331#0 152406 152331#2 152331#3 152331#4 152331#5 152331#6 152331#7 152167 -153008#3 -153008#2 -153008#1 -153008#0 152901#2 -152872#4 -152834#6 -152834#5 -152834#4 152825#0 152825#1 152825#2 152825#3 152794#0 152794#1 152834#1 152834#2 152834#3 152834#4"/>
    </vehicle>
    <vehicle id="special_1-3_105" type="special" depart="19121" departLane="best" arrivalPos="random">
        <route edges="152536#7 152537#0 152537#1 152537#2 152537#4 152537#6 152656#4 152672#3 152672#4 152283 -152291 -152763 -152292 -152802 -152293 -152796 152294 152386 -152207 152463 152312 152313#2 -152310 152319#1 152319#2 -152309 152282 152532 -152331#7 -152331#6 -152331#5 -152331#4 -152331#3 -152331#2 -152331#1 -152331#0 153639 153636#1 153638#1 153004#0 153004#1 -153460#1 -153460#0 -153459"/>
    </vehicle>
    <vehicle id="special_2-1_164" type="special" depart="19123" departLane="best" arrivalPos="random">
        <route edges="-152905 153460#1 153007#0 153007#1 152236 153340 153643 152331#0 152406 152331#2 152331#3 152331#4 152331#5 152331#6 152331#7 152167 -153008#3 -153008#2 -153008#1 -153008#0 -152901#1 -152901#0 152403#0 152403#1 152403#2 152940#0 152940#1 152940#2 152421#1 152309 152319#3 152319#4 152310 152313#3 -152306 -152833#2 -152833#1 -152387#0 152813 152818#5 152822 152962#1 152807#0"/>
    </vehicle>
    <vehicle id="special_1-1_195" type="special" depart="19172" departLane="best" arrivalPos="random">
        <route edges="-152943#3 -152943#2 -152943#1 -152943#0 152967#0 152967#1 152320 -152617#2 -152617#1 -152617#0 152456#3 152456#4 -152455 -152224 -152170 -152607#2 -152607#1 -152607#0 -152669#10 -152669#9 -152669#8 -152669#7 -152669#6 -152669#5 -152669#4 152716 152175#0 152175#1 -152703#5 -152703#4 -152703#3 -152703#2 -152703#1 -152703#0 152230 152945#0 152795 152787#2 152168 152971#0 152971#1 152971#2 152971#3 152989#0 152989#1 152834#0 152834#1 152834#2 152834#3 152825#0 152825#1 152825#2 152825#3"/>
    </vehicle>
    <vehicle id="special_1-3_15" type="special" depart="19173" departLane="best" arrivalPos="random">
        <route edges="152810 152961#3 -152823#2 -152823#1 -152823#0 152138#6 152138#7 -152140 152319#4 152319#1 152319#2 -152309 152282 152532 -152331#7 -152331#6 -152331#5 -152331#4 -152331#3 -152331#2 -152331#1 -152331#0 153639 152407 -153009#6 -153458#6 -153458#5 -153458#4 -153458#3 -153458#2 -153458#1 -153458#0 153453#5 153437#0 153437#1 153437#2 153437#3 152418#1 152415#0 152415#1 152415#2 152415#3"/>
    </vehicle>
    <vehicle id="special_1-3_209" type="special" depart="19199" departLane="best" arrivalPos="random">
        <route edges="152453 152460#0 -152968#1 -152968#0 -152888#0 152977#4 152977#1 -153562 152900#0 152900#1 152900#2 -152300 152859 152138#3 152138#4 152138#5 152138#6 152138#7 -152140 152319#4 152319#1 152319#2 -152309 152282 152532 -152331#7 -152331#6 -152331#5 -152331#4 -152331#3 -152331#2 -152331#1 -152331#0 153639 153636#1 153638#1 153004#0 153004#1 -153460#1 -153460#0 -153461#0 -152257 153462 -153462 152257 153461#0 153461#1"/>
    </vehicle>
    <vehicle id="special_3-1_114" type="special" depart="19208" departLane="best" arrivalPos="random">
        <route edges="-153459 153454#1 153454#2 153453#1 153453#2 153453#3 153453#4 153453#5 153453#6 153453#7 153435#1 152736#0 -152738#2 -152738#1 -152738#0 153393#0 153393#1 153394#1 153389#1 153389#2 -152630#1 -152630#0 -153386#1 -153386#0 -152178 -152177#2 -152177#1 -152177#0 -153385#0 -152251 -153387#1 -153387#0 -152252 -153414#5 -153331#5 -153331#4 -153333#11 -153333#10 -153333#9 -153333#8 -153333#7 -153333#6 -153333#5 -153333#4 -153333#2 -153333#1 -153333#0 -153417#1 152684#1"/>
    </vehicle>
    <vehicle id="special_1-2_54" type="special" depart="19246" departLane="best" arrivalPos="random">
        <route edges="152877#1 152877#2 -152399#4 -152399#3 -152399#2 152648 -152299 -152875#3 -152875#2 -152875#1 -152875#0 152985 152984#3 152984#4 152975 -152897#1 153478#1 153478#2 153478#3 153478#5 153478#6 153478#7 153478#8 153478#9 153010#0 152402 -152402 -153010#0 -153478#9 -153478#8"/>
    </vehicle>
    <vehicle id="special_1-2_8" type="special" depart="19288" departLane="best" arrivalPos="random">
        <route edges="152825#1 152825#2 152825#3 152794#0 152794#1 152834#1 152834#2 152834#3 152834#4 152834#5 152834#6 152872#4 152872#5 -152901#1 -152901#0"/>
    </vehicle>
    <vehicle id="special_3-1_26" type="special" depart="19306" departLane="best" arrivalPos="random">
        <route edges="-152905 153460#1 153007#0 153007#1 152236 153340 153643 152331#0 152406 152331#2 152331#3 152331#4 152331#5 152331#6 152331#7 152167 152169#0 152169#1 152400#1 152400#2 152903#0 152903#1 152990 152816#0 152816#1 152816#2 152816#3 152816#4 152816#5 152816#6 152816#7 152816#8 152816#9 152816#10 152816#11 152761 152231 152787#0 152821 152946#2 152235 152703#0 152703#1 152703#2 152703#3 152703#4 152703#5 152705 152706 152669#1 152669#2 152669#3 152669#4 152669#5 152669#6 152669#7 152669#8 152669#9 152669#10 152669#11 152607#1"/>
    </vehicle>
    <vehicle id="special_1-1_147" type="special" depart="19328" departLane="best" arrivalPos="random">
        <route edges="152816#4 152816#5 152816#6 152816#7 -152814#5 -152814#4 152831 -152792 152814#4 152814#5"/>
    </vehicle>
    <vehicle id="special_3-1_16" type="special" depart="19350" departLane="best" arrivalPos="random">
        <route edges="-153396#2 -153396#1 -153396#0 -152415#2 -152415#1 -152415#0 152414 152446#1 -153437#3 -153437#2 -153437#1 -153437#0 153453#6 153453#7 153435#1 152736#0 -152738#2 -152738#1 -152738#0 153393#0 153393#1 153394#1 153389#1 153389#2 -152630#1 -152630#0 -153386#1 -153386#0 -152178 -152177#2 -152177#1 -152177#0 -153385#0 -152251 -153387#1 -153387#0 -152252 -153414#5 -153331#5 -153331#4 -153333#11 -153333#10 -153333#9 -153333#8 -153333#7 -153333#6 -153333#5 -153333#4 -153333#2 -153333#1 -153333#0 -153417#1 -153417#0 -153415#13"/>
    </vehicle>
    <vehicle id="special_1-2_100" type="special" depart="19368" departLane="best" arrivalPos="random">
        <route edges="-153560 153561#1 153561#2 152900#1 152900#2 -152300 152859 152138#3 152138#4 152138#5 152138#6 152138#7 -152140 152319#4 152310 152313#3 152313#0 152272 152425 152207 -152386 -152294 152796 152293 152802 152292 152763 152291 152287 152671#0 152671#1 152364#2 -152609 -152171#1 -152171#0 -152225 152589#0 152589#1 152589#2 152589#3 152221 152581#0 152581#1 152349 152346#0 152583#0 152583#1 152583#2 152583#3 152583#4 -152562 153365#3 153325#0 153325#1 153325#2 153325#3 153325#4 153361#0 153361#1 153356#0 153356#1 153356#2 153359#2 -152959"/>
    </vehicle>
    <vehicle id="special_1-3_4" type="special" depart="19373" departLane="best" arrivalPos="random">
        <route edges="152813 152818#5 152822 152962#1 152962#2 152962#3 152962#4 152306 152313#0 152313#1 152313#2 -152310 152319#1 152319#2 -152309 152282 152532 -152331#7 -152331#6 -152331#5 -152331#4 -152331#3 -152331#2 -152331#1 -152331#0 153639 152407 -153009#6 -153458#6 -153458#5 -153458#4 -153458#3 -153458#2 -153458#1 -153458#0 153453#5 153437#0 153437#1 153437#2 153437#3 152418#1 152415#0 152415#1 152415#2 153396#0 153396#1 153396#2 -152481 152481 -153396#2"/>
    </vehicle>
    <vehicle id="special_1-1_122" type="special" depart="19387" departLane="best" arrivalPos="random">
        <route edges="-152814#1 -152814#0 -153443#0 -153447#1 -153447#0 153005#0 153005#1 153006 -152973#5 153441#0 153441#1 153441#2 152468#1 152945#0 152795 152787#2 152168 152971#0 152971#1 152971#2 152971#3 -152797#1 152810 152961#3 152961#4 -152819#3 -152819#2 -152819#1 -152819#0 -152778 152765 -152774 -152775 152776 -152762 -152765"/>
    </vehicle>
    <vehicle id="special_1-1_171" type="special" depart="19435" departLane="best" arrivalPos="random">
        <route edges="-152207 152463 152312 152313#2 152313#3 -152306 -152833#2 -152833#1 -152387#0 152813 152818#5 -152812#2 -152812#1 -152806 152941#1 152941#2 152548 -152769#2 -152782 -152703#2 -152703#1 152769#0"/>
    </vehicle>
    <vehicle id="special_2-1_204" type="special" depart="19515" departLane="best" arrivalPos="random">
        <route edges="-152552 -153361#0 -153325#4 -153325#3 -153325#2 -153325#1 -153325#0 -153365#3 152562 -152583#4 -152583#3 -152583#2 -152583#1 -152583#0 152346#1 -152581#1 -152581#0 -152221 -152589#3 -152589#2 -152589#1 -152589#0 152225 152171#0 152171#1 152609 152364#3 152364#0 152364#1 -152671#1 -152671#0 -152227 -152291 -152763 -152292 -152802 -152293 -152796 152294 152386 -152207 152463 152312 152313#2 -152310 152319#1 152318 -152900#2 -152900#1 -152900#0 153562 152977#2 152977#3 152888#0 152968#0 152968#1 152460#1 152460#2 152399#0 152399#1 152399#2 152399#3 152860 -152399#4 -152399#3"/>
    </vehicle>
    <vehicle id="special_1-3_191" type="special" depart="19547" departLane="best" arrivalPos="random">
        <route edges="-152399#3 -152399#2 152648 -152299 -152875#3 -152875#2 -152875#1 -152875#0 152985 152984#3 152984#4 152975 -152897#1 153478#1 153478#2 153478#3 153478#5 153478#6 153478#7 153478#8 153478#9 153478#10 153478#11 153478#12 153478#13 153478#14 153478#15 153478#16 153478#17 153478#18 153478#19 153478#20 153478#22 153478#23 153478#24 153478#25 153478#26 -152304 -153344 -152303 -153479#1 -153479#0 -152258 -152929"/>
    </vehicle>
    <vehicle id="special_3-1_156" type="special" depart="19548" departLane="best" arrivalPos="random">