<?xml version="1.0" encoding="UTF-8"?>

<!-- generated on Thu Apr 26 16:59:16 2018 by Eclipse SUMO duarouter Version 1c6dcbf191
<configuration xmlns:xsi="http://www.w3.org/2001/XMLSchema-instance" xsi:noNamespaceSchemaLocation="http://sumo.dlr.de/xsd/duarouterConfiguration.xsd">

    <input>
        <net-file value="../scenario/in/most.net.xml"/>
        <additional-files value="../scenario/in/add/most.busstops.add.xml,../scenario/in/add/most.trainstops.add.xml,../scenario/in/add/most.parkings.add.xml,../scenario/in/add/basic.vType.xml"/>
        <route-files value="out/most.passenger.trips.xml"/>
    </input>

    <output>
        <output-file value="../scenario/in/route/most.passenger.rou.xml"/>
        <vtype-output value="/dev/null"/>
        <alternatives-output value="../scenario/in/route/most.passenger.rou.alt.xml"/>
    </output>

    <processing>
        <ignore-errors value="true"/>
        <max-alternatives value="5"/>
        <remove-loops value="false"/>
        <repair value="false"/>
        <repair.from value="false"/>
        <repair.to value="false"/>
        <routing-threads value="4"/>
        <routing-algorithm value="dijkstra"/>
    </processing>

    <time>
        <begin value="0"/>
        <end value="84600"/>
    </time>

</configuration>
-->

<routes xmlns:xsi="http://www.w3.org/2001/XMLSchema-instance" xsi:noNamespaceSchemaLocation="http://sumo.dlr.de/xsd/routes_file.xsd">
    <vehicle id="passenger_3_2181" type="passenger3" depart="18014.00" departLane="best">
        <route edges="1385 1387#1 1386#1 926#0 926#1 1578 223#0 223#1 223#2 223#3 223#4 223#5 223#6 223#7 223#8 223#9 223#10 295#1 295#2 818#0 818#1 908 730#0 730#1 730#2 730#3 730#4 730#5 730#6 730#7 730#8 730#9 730#10 730#11 675 735 863#2 617#0 683#0 683#1 683#2 683#3 632 580 -691#2 -588#2 -588#1 -564#0 -593#5 -593#4 -593#3 -593#2 -593#1 -593#0 586 569#1 569#2 439#0 439#2 439#4 439#6 439#7 439#9 360#3 360#4 360#5 244#0 244#1 -354#2 354#0"/>
    </vehicle>
    <vehicle id="passenger_3_2005" type="passenger2b" depart="18021.00" departLane="best">
        <route edges="928#5 928#6 303 1573#1 923#0 754 926#1 1578 223#0 223#1 223#2 223#3 223#4 223#5 223#6 223#7 223#8 223#9 223#10 295#1 295#2 818#0 818#1 908 730#0 730#1 730#2 730#3 730#4 730#5 730#6 730#7 730#8 730#9 730#10 730#11 675 735 863#2 617#0 683#0 683#1 683#2 683#3 632 580 -691#2 -588#2 -588#1 -564#0 -593#5 -593#4 -593#3 -593#2 -593#1 -593#0 586 569#1 569#2 439#0 439#2 439#4 439#6 439#7 439#9 360#3 360#4 360#5 244#0 244#1 -354#2 -354#1 -354#0"/>
    </vehicle>
    <vehicle id="passenger_3_2802" type="passenger1" depart="18029.00" departLane="best">
        <route edges="1267 -1269#0 911#1 456 -913 -1422 -1285#2 -1282#2 -1282#1 -1282#0 -1287#1 -1287#0 851#3 851#0 851#1 -1244#4 -1244#3 -1244#2 -1244#1 -1244#0 -1293#4 -1293#3 -1293#2 -467#1 -467#0 1487 -368#0 889#1 489#2 489#3 489#4 23 1303#1 1303#2 355#0 355#1 355#2 360#1 440#0 440#2 515 516 439#6 439#7 439#9"/>
    </vehicle>
    <vehicle id="passenger_1_785" type="passenger2a" depart="18032.00" departLane="best">
        <route edges="1256#1 1256#2 1256#3 1256#4 1256#5 1256#6 1256#7 -1248#12 -1248#11 -1248#10 -1248#9 -958 1248#11 1248#12 -1256#7 -1256#6 -1256#5 -1256#4 -1256#3 -1256#2 -1256#1 -1256#0 -1372#0 -1369#3 -1369#2 -1369#1 -1369#0 -1373#1 -1373#0 924#1 925 -890#5 1367#0 1367#1 1367#2 -369#0"/>
    </vehicle>
    <vehicle id="passenger_1_855" type="passenger1" depart="18034.00" departLane="best">
        <route edges="565 569#2 569#3 569#4 585#3 585#4 174 -182 -677 -183 -716 -184 -710 185 281 362 204 205#2 205#3 -197 879#5 879#6 879#7 879#8 879#9 879#11 878#1 878#2 878#3 -733#3 -733#2 -733#1 -733#0 -692 679 -688 -689"/>
    </vehicle>
    <vehicle id="passenger_GW1_260" type="passenger2a" depart="18039.00" departLane="best">
        <route edges="1406 196 844 1405#1 194 1263 195 -1404#27 -1404#26 -1404#25 -1404#24 -1404#23 -1404#21 -1404#20 -1404#19 -1404#18 -1404#17 -1404#16 -1404#13 -1404#12 -1404#11 -1404#10 -1404#9 -1404#8 -1404#7 -1404#6 -1404#5 -1404#3 -1404#2 -1404#1 -1404#0 315 162 316#0 316#1 201 211#3 211#4 202 205#3 -197 879#5 879#6 879#7 879#8 879#9 -741#1 -741#0 -1480#3 -1480#2 -1480#1 -1480#0 -888#1 -888#0 863#0 863#1 863#2 617#0 617#1 617#2 617#3 617#4 617#5 619"/>
    </vehicle>
    <vehicle id="passenger_GW1_1289" type="passenger2b" depart="18046.00" departLane="best">
        <route edges="420 164 422 431 469 415#3 415#4 1309#0 1309#1 1309#2 1309#3 1309#4 1309#5 1309#6 1309#7 -1311#1 -1311#0 -1313#0 -1250#5 -1250#4 -1252#11 -1252#10 -1252#9 -1252#8 -1252#7 -1252#6 -1252#5 -1252#4 -1252#2 -1252#1 -1252#0 -1343#1 -1343#0 1341#14 1341#15 1341#16"/>
    </vehicle>
    <vehicle id="passenger_2_2698" type="passenger1" depart="18061.00" departLane="best">
        <route edges="252 1319#1 1494#0 1494#1 1248#0 1248#1 1248#2 1248#3 1248#4 1248#5 1248#6 1248#7 1248#8 1248#9 1248#10 1248#11 1248#12 -1256#7 -1256#6 -1256#5 -1256#4 -1256#3 -1256#2 -1256#1 -1256#0 -1372#0 -1369#3 -1369#2 -1369#1 1371 728#1 728#2 728#3 728#4 728#5 730#8 717 698 1484#2 1484#3 743#0 743#1 888#1 1480#0 1480#1 1480#2 1480#3 741#0 741#1 879#11 878#1 878#2 878#3 878#4 695 734#0 734#1"/>
    </vehicle>
    <vehicle id="passenger_2_1323" type="passenger2a" depart="18114.00" departLane="best">
        <route edges="1379#1 1379#2 1379#3 1379#4 1379#5 1379#6 1379#7 1361#1 650#0 -652#2 -652#1 -652#0 1319#0 1319#1 1494#0 1494#1 1494#2 1320 1315#1 1315#2 -542#1 -542#0 -1312#5 -1312#4 -1312#3 -1312#2 -1312#1 -1312#0 -1311#0 -1313#0 -1250#5 -1250#4 -1250#3 -1250#2 -1250#1 -1250#0 850#3 -1327#1 -1327#0 563#0 563#1 563#2 563#3 563#4 563#5 1334#0 1334#1 1334#2 859 600 630#3"/>
    </vehicle>
    <vehicle id="passenger_GW1_1377" type="passenger1" depart="18122.00" departLane="best">
        <route edges="1406 196 844 1405#1 194 1263 195 -1404#27 -1404#26 -1404#25 -1404#24 -1404#23 -1404#21 -1404#20 -1404#19 -1404#18 -1404#17 -1404#16 -1404#13 -1404#12 -1404#11 -1404#10 -1404#9 -1404#8 -1404#7 -1404#6 -1404#5 -1404#3 -1404#2 -1404#1 -1404#0 10 318"/>
    </vehicle>
    <vehicle id="passenger_2_372" type="passenger1" depart="18123.00" departLane="best">
        <route edges="1332#6 1332#7 1332#8 924#1 925 -890#5 1367#0 1367#1 1367#2 369#1 617#0 683#0 683#1 683#2 683#3 632 580 -691#2 -588#2 -588#1 -564#0 -593#5 -593#4 -593#3 -593#2 -593#1 -593#0 586 569#1 569#2 569#3 569#4 585#3 1481 593#0 593#1 593#2"/>
    </vehicle>
    <vehicle id="passenger_3_342" type="passenger3" depart="18127.00" departLane="best">
        <route edges="-1274 911#1 456 -913 -1422 -1285#2 -1282#2 -1282#1 -1282#0 -1287#1 -1287#0 851#3 851#0 -468#6 -468#5 -468#3 -468#2 -468#1 -468#0 1300#1 1408#0 1408#1 1408#2 1408#3 1408#4 1408#5 1408#6 1408#7 497#1 243 494#0 494#1 494#2 494#3 494#4 351#2 351#3 351#4 -350 -519#2 -519#1 -519#0 -582#10 -582#9 -582#8 -582#7 -582#6 -582#5 -582#4 630#1 630#2 630#3 -617#5 -617#4 -617#3 -617#2 -617#1 -617#0 111 862#0 862#1 -730#11 -864#2"/>
    </vehicle>
    <vehicle id="passenger_GW1_122" type="passenger1" depart="18177.00" departLane="best">
        <route edges="1406 196 844 1405#1 194 1263 195 -1404#27 -1404#26 -1404#25 -1404#24 -1404#23 -1404#21 -1404#20 -1404#19 -1404#18 -1404#17 -1404#16 -1404#13 -1404#12 -1404#11 -1404#10 -1404#9 -1404#8 -1404#7 -1404#6 -1404#5 -1404#3 -1404#2 -1404#1 -1404#0 315 162 316#0 316#1 201 211#3 211#4 202 205#3 -197 -747#2 721#1 721#2 700#0 700#1"/>
    </vehicle>
    <vehicle id="passenger_2_2428" type="passenger1" depart="18192.00" departLane="best">
        <route edges="471 -1293#2 -1293#1 -1293#0 239#1 103 497#1 243 494#0 494#1 494#2 494#3 494#4 351#2 351#3 351#4 -350 -519#2 -519#1 -519#0 -582#10 -582#9 -582#8 -582#7 -582#6 -582#5 -582#4 630#1 630#2 630#3 -617#5 -617#4 -617#3 -622#3 -622#2 -622#1 -622#0 919 625#1"/>
    </vehicle>
    <vehicle id="passenger_3_2787" type="passenger2a" depart="18211.00" departLane="best">
        <route edges="-1274 911#1 456 -913 -1422 -1285#2 -1282#2 -1282#1 -1282#0 -1287#1 -1287#0 851#3 851#0 -468#6 -468#5 -468#3 -468#2 -468#1 -468#0 1300#1 1408#0 1408#1 1408#2 1408#3 1408#4 1408#5 1408#6 1408#7 497#1 243 494#0 494#1 494#2 494#3 494#4 351#2 351#3 351#4 -350 -519#2 -519#1 -519#0 -582#10 -582#9 -582#8 -582#7 -582#6 -582#5 -582#4 -582#3 -582#2 -582#1 618#0 618#1 -691#5 -691#4 -691#3 -691#2 -691#0 726#0 726#1 726#2 857#2 857#3 736 879#1 879#2 879#3 879#4 197 205#0 205#1 205#2 -202 211#1 210 -815#2 -815#1 -815#0 1492 895#2 895#3 803#0 885#0 885#1 358#1 358#2 294#0"/>
    </vehicle>
    <vehicle id="passenger_3_598" type="passenger1" depart="18215.00" departLane="best">
        <route edges="456 -913 -1422 -1285#2 -1282#2 -1282#1 -1282#0 -1287#1 -1287#0 851#3 851#0 -468#6 -468#5 -468#3 -468#2 -468#1 -468#0 1300#1 1408#0 1408#1 1408#2 1408#3 1408#4 1408#5 1408#6 1408#7 497#1 243 494#0 494#1 494#2 494#3 494#4 351#2 351#3 520#0 -524#1 531 520#2 520#3 520#4 520#5 520#6 520#7 520#8 520#9 416#1 247#4 247#1 -562#6 -562#5 -562#4 -562#3 -562#2 -562#1 -562#0 561#1 561#2 1324#0 1324#1 1324#2 1324#3"/>
    </vehicle>
    <vehicle id="passenger_1_703" type="passenger2b" depart="18219.00" departLane="best">
        <route edges="855#1 855#2 855#3 855#4 520#7 520#8 520#9 416#1 247#4 247#1 247#2 248#0 248#1 -567#0 -582#10 -582#9 -582#8 -582#7 -582#6 -582#5 -582#4 -582#3 -582#2 -582#1 618#0 618#1 -691#5 -691#4 -691#3 -691#2 -691#0 726#0 726#1 726#2"/>
    </vehicle>
    <vehicle id="passenger_3_971" type="passenger4" depart="18221.00" departLane="best">
        <route edges="666#5 666#7 666#8 -310#0 309 341#1 -1363#3 -1363#2 -1363#1 -1363#0 1379#6 1379#7 1361#1 650#0 -652#2 -652#1 -652#0 1319#0 1319#1 1494#0 1494#1 1248#0 1248#1 1248#2 1248#3 1248#4 1248#5 1248#6 1248#7 1248#8 1248#9 1248#10 1248#11 1248#12 -1256#7 -1256#6 -1256#5 -1256#4 -1256#3 -1256#2 -1256#1 -1256#0 -1372#0 -1369#3 -1369#2 -1369#1 1371 728#1 728#2 728#3 728#4 728#5 730#8 717 698 1484#2 1484#3 743#0 743#1 888#1 1480#0 1480#1 1480#2 1480#3 741#0 741#1 879#11 878#1 878#2 -737#2 -737#0 15#6 15#7 -17 211#4 211#1 211#2"/>
    </vehicle>
    <vehicle id="passenger_3_738" type="passenger3" depart="18244.00" departLane="best">
        <route edges="1267 -1269#0 911#1 456 -913 -1422 -1285#2 -1282#2 -1282#1 -1282#0 -1287#1 -1287#0 851#3 851#0 -468#6 -468#5 -468#3 -468#2 -468#1 -468#0 1300#1 1408#0 1408#1 1408#2 1408#3 1408#4 1408#5 1408#6 1408#7 497#1 243 494#0 494#1 494#2 494#3 494#4 351#2 351#3 351#4 -350 -519#2 -519#1 -519#0 -582#10 -582#9 -582#8 -582#7 -582#6 -582#5 -582#4 -583#2 -583#1 -583#0 -593#4 592#0 592#1 592#2 592#3"/>
    </vehicle>
    <vehicle id="passenger_2_1321" type="passenger1" depart="18297.00" departLane="best">
        <route edges="-143#0 -1351#3 1338#0 1338#1 1338#2 1338#3 1338#4 1338#5 1338#6 1338#7 1338#8 1338#9 -1252#2 -1252#1 -1252#0 -1343#1 -1343#0 1341#14 1341#15 1341#16 918 920 622#0 622#1 622#2 622#3 617#3 617#4 617#5 619 620 572#0 572#1 572#2 -593#5"/>
    </vehicle>
    <vehicle id="passenger_3_473" type="passenger1" depart="18354.00" departLane="best">
        <route edges="1270#0 1270#1 1270#2 1270#3 -1275#1 -1275#0 130 1279 1288#0 1288#1 1247#1 1247#2 1247#3 1247#4 1300#1 1408#0 1408#1 1408#2 1408#3 1408#4 1408#5 1408#6 1408#7 497#1 243 494#0 494#1 494#2 494#3 494#4 351#2 351#3 351#4 -350 -519#2 -519#1 -519#0 -582#10 -582#9 -582#8 -582#7 -582#6 -582#5 -582#4 630#1 630#2 630#3 -617#5 -617#4 -617#3 -617#2 -617#1 -617#0 111 862#0 709 701#2 888#0"/>
    </vehicle>
    <vehicle id="passenger_2_13" type="passenger1" depart="18413.00" departLane="best">
        <route edges="-1332#5 -1332#4 -1332#3 -1332#2 -1332#1 -1332#0 -623#0 622#2 622#3 696 683#2 -455 -858#2 -858#1 -858#0 726#1 726#2 857#2 857#3 736 879#1 721#0 721#1 699#0 699#1 -282#1"/>
        <stop parkingArea="152467" duration="43200.00"/>
    </vehicle>
    <vehicle id="passenger_GW2_655" type="passenger2a" depart="18423.00" departLane="best">
        <route edges="1593 175 -465 -1285#2 -1282#2 -1282#1 -1282#0 -1287#1 -1287#0 851#3 851#0 -468#6 -468#5 -468#3 -468#2 -468#1 -468#0 1300#1 1408#0 1408#1 1408#2 1408#3 1408#4 1408#5 1408#6 1408#7 497#1 243 494#0 494#1 494#2 494#3 494#4 351#2 351#3 351#4 -350 -519#2 -519#1 -519#0 -582#10 -582#9 -582#8 -582#7 -582#6 -582#5 -582#4 -582#3 -582#2 -582#1 618#0 618#1 -691#5 -691#4 -691#3 -691#2 -691#0 726#0 726#1 726#2 857#2 857#3 736 879#1 879#2 879#3 879#4 879#5 879#6 879#7 879#8 879#9 879#11 878#1 878#2 878#3 878#4 695 734#0 734#1 734#2 734#3 734#4 285 705#0 705#1"/>
    </vehicle>
    <vehicle id="passenger_2_282" type="passenger4" depart="18433.00" departLane="best">
        <route edges="1494#0 1494#1 1248#0 1248#1 1248#2 1248#3 1248#4 1248#5 1248#6 1248#7 1248#8 1248#9 1248#10 1248#11 1248#12 -1256#7 -1256#6 -1256#5 -1256#4 -1256#3 -1256#2 -1256#1 -1256#0 -1372#0 -1369#3 -1369#2 -1369#1 1371 728#1 728#2 728#3 728#4 728#5 730#8 717 698 1484#2 1484#3 743#0 743#1 888#1 1480#0 1480#1 1480#2 1480#3 741#0 741#1 879#11 878#1 878#2 -737#2 -737#0 15#6 15#7 15#0 15#1 15#2 -773 191 -815#2 -815#1 -1491#2"/>
        <stop parkingArea="152476" duration="43200.00"/>
    </vehicle>
    <vehicle id="passenger_2_1318" type="passenger1" depart="18449.00" departLane="best">
        <route edges="-1302#14 -1302#13 -1302#12 -1302#11 -1302#10 -1302#9 -1302#8 -849 1302#7 1302#8 1302#9 1302#10 1302#11 1302#12 1302#13 1302#14 850#1 850#2 850#3 -1327#1 -1327#0 563#0 563#1 563#2 563#3 563#4 563#5 1334#0 1334#1 1334#2 859 600 630#3 -617#5 -617#4 -617#3 -617#2 -617#1 -617#0 111 862#0 709 701#2 888#0 888#1 1480#0 1480#1 1480#2 1480#3 741#0 741#1 879#11 878#1 878#2 -737#2 -737#0 15#6 15#7 15#0 15#1 15#2 -773 191 -815#2 -815#1 -815#0 1492 895#2 895#3 803#0 885#0 885#1 358#1 358#2 294#0 294#1 294#2 294#3 774 -294#4"/>
    </vehicle>
    <vehicle id="passenger_3_2290" type="passenger1" depart="18456.00" departLane="best">
        <route edges="1270#0 1270#1 1270#2 1270#3 -1275#1 -1275#0 130 1279 1288#0 1288#1 1247#1 1247#2 1247#3 1247#4 1300#1 1408#0 1408#1 1408#2 1408#3 1408#4 1408#5 1408#6 1408#7 497#1 243 494#0 494#1 494#2 494#3 494#4 351#2 351#3 351#4 -350 -519#2 -519#1 -519#0 -582#10 -582#9 -582#8 -582#7 -582#6 -582#5 -582#4 630#1 630#2 630#3 -617#5 -617#4 -617#3 -622#3 -622#2 -622#1 -622#0 919 625#1 609#0"/>
    </vehicle>
    <vehicle id="passenger_3_169" type="passenger1" depart="18465.00" departLane="best">
        <route edges="477 -392#1 -392#0 -483#6 -483#5 -483#4 -483#3 -897 -538#1 -538#0 -1352#1 650#0 -652#2 -652#1 -652#0 1319#0 1319#1 1494#0 1494#1 1248#0 1248#1 1248#2 1248#3 1248#4 1248#5 1248#6 1248#7 1248#8 1248#9 1248#10 1248#11 1248#12 -1256#7 -1256#6 -1256#5 -1256#4 -1256#3 -1256#2 -1256#1 -1256#0 -1372#0 -1369#3 -1369#2 -1369#1 1371 728#1 728#2 728#3 728#4 728#5 730#8 730#9 730#10 730#11 675"/>
    </vehicle>
    <vehicle id="passenger_GW1_1340" type="passenger2a" depart="18466.00" departLane="best">
        <route edges="420 164 422 431 469 415#3 415#4 1309#0 1309#1 1309#2 1309#3 1309#4 1309#5 1309#6 1309#7 -1311#1 -1311#0 -1313#0 -1340#4 -1340#3 -1340#2 -1340#1 -1340#0 1351#1 1351#2 1351#3 1351#4 143#1 -1368#5 -1368#4 -1368#3 -1368#2 -1368#1 -1369#3 -1369#2 -1369#1 1371 728#1 728#2 728#3"/>
    </vehicle>
    <vehicle id="passenger_3_2349" type="passenger1" depart="18480.00" departLane="best">
        <route edges="-1274 911#1 456 -913 -1422 -1285#2 -1282#2 -1282#1 -1282#0 -1287#1 -1287#0 851#3 851#0 -468#6 -468#5 -468#3 -468#2 -468#1 -468#0 1300#1 1408#0 1408#1 1408#2 1408#3 1408#4 1408#5 1408#6 1408#7 497#1 243 494#0 494#1 494#2 494#3 494#4 351#2 351#3 351#4 -350 -519#2 -519#1 -519#0 -582#10 -582#9 -582#8 -582#7 -582#6 -582#5 -582#4 630#1 630#2 630#3 -617#5 -617#4 -617#3 -617#2 -617#1 -617#0 111 862#0 709 701#2 888#0 888#1 888#2 888#3 888#4 888#5 907#0"/>
    </vehicle>
    <vehicle id="passenger_3_1374" type="passenger3" depart="18481.00" departLane="best">
        <route edges="-1386#1 820 1405#1 194 1263 195 -1404#27 -1404#26 -1404#25 -1404#24 -1404#23 -1404#21 -1404#20 -1404#19 -1404#18 -1404#17 -1404#16 -1404#13 -1404#12 -1404#11 -1404#10 -1404#9 -1404#8 -1404#7 -1404#6 -1404#5 -1404#3 -1404#2 -1404#1 -1404#0 315 162 316#0 316#1 201 211#3 211#4 202 205#3 -197 -747#2 -747#1 -747#0 732#4 732#5 857#0 857#1 -726#2 -726#1 -726#0 691#0 691#2 -580 -632 -858#4 -858#2 -858#1 -858#0"/>
    </vehicle>
    <vehicle id="passenger_2_1108" type="passenger1" depart="18487.00" departLane="best">
        <route edges="1407#0 1407#1 1407#2 1407#3 1407#4 1407#5 1407#6 1407#7 1407#8 1407#9 1407#11 223#3 223#4 223#5 223#6 223#7 223#8 -927#3 -927#2 -927#1 -927#0 -816#1 -816#0 298#0 298#1 298#2 856#0 856#1 856#2 316#1 201 211#3 211#4 202 205#3 -197 -747#2 -747#1 -747#0 732#4 732#5 857#0 703#0 703#1 317 1479#1 226 -703#2"/>
    </vehicle>
    <vehicle id="passenger_2_2083" type="passenger2b" depart="18496.00" departLane="best">
        <route edges="976#0 974 1380#2 1379#1 1379#2 1379#3 1379#4 1384#0 1384#1 1384#2 1384#3 1384#4 1384#5 1384#6 928#6 303 1573#1 923#0 754 926#1 1578 223#0 223#1 223#2 223#3 223#4 223#5 223#6 223#7 223#8 223#9 223#10 295#1 295#2 818#0 818#1 213 299 -877 812#1 812#2 902#0 902#1 902#2 902#3 -817#1 -817#0 895#3 895#4 800#0 800#1 800#2 791#5 791#0 791#1 791#2 791#3 791#4"/>
    </vehicle>
    <vehicle id="passenger_3_3558" type="passenger2b" depart="18507.00" departLane="best">
        <route edges="164 422 431 469 415#3 415#4 1309#0 1309#1 1309#2 1309#3 1309#4 1309#5 1309#6 1309#7 -1311#1 -1311#0 -1313#0 -1250#5 -1250#4 -1252#11 -1252#10 -1252#9 -1252#8 -1252#7 -1252#6 -1252#5 -1252#4 -1252#2 -1252#1 -1252#0 -1343#1 -1343#0 1341#14 1341#15 1341#16 918 920 622#0 622#1 622#2 622#3 -617#2 -617#1 -617#0 111 862#0 709 701#2 888#0 888#1 1480#0 1480#1 1480#2 1480#3 741#0 741#1 879#11 878#1 878#2 -737#2 -737#0 15#6 15#7 15#0"/>
    </vehicle>
    <vehicle id="passenger_3_1938" type="passenger4" depart="18537.00" departLane="best">
        <route edges="-1273 -448 456 -913 -1422 -1285#2 -1282#2 -1282#1 -1282#0 -1287#1 -1287#0 851#3 851#0 -468#6 -468#5 -468#3 -468#2 -468#1 -468#0 1300#1 1408#0 1408#1 1408#2 1408#3 1408#4 1408#5 1408#6 1408#7 497#1 243 494#0 494#1 494#2 494#3 494#4 351#2 351#3 351#4 -350 -519#2 -519#1 -519#0 -582#10 -582#9 -582#8 -582#7 -582#6 -582#5 -582#4 -582#3 -582#2 -582#1 618#0 618#1 -691#5 -691#4 -691#3 -691#2 -691#0 726#0 726#1 726#2 857#2 857#3 736 879#1 879#2 879#3 879#4 197 205#0 205#1 205#2 -202 211#1 211#2 211#3 17 15#0 16 887 316#0 316#1"/>
    </vehicle>
    <vehicle id="passenger_3_7" type="passenger1" depart="18549.00" departLane="best">
        <route edges="1380#2 1379#1 1379#2 1379#3 1379#4 1384#0 1384#1 1384#2 1384#3 1384#4 1384#5 1384#6 928#6 303 1573#1 923#0 754 926#1 1578 223#0 223#1 223#2 223#3 223#4 223#5 223#6 223#7 223#8 223#9 223#10 295#1 295#2 818#0 818#1 213 299 -877 812#1 812#2 902#0 902#1 902#2 902#3 -817#1 -817#0"/>
    </vehicle>
    <vehicle id="passenger_3_1499" type="passenger2a" depart="18555.00" departLane="best">
        <route edges="-1386#1 820 1405#1 194 1263 195 -1404#27 -1404#26 -1404#25 -1404#24 -1404#23 -1404#21 -1404#20 -1404#19 -1404#18 -1404#17 -1404#16 -1404#13 -1404#12 -1404#11 -1404#10 -1404#9 -1404#8 -1404#7 -1404#6 -1404#5 -1404#3 -1404#2 -1404#1 -1404#0 315 162 316#0 316#1 201 211#3 211#4 202 205#3 -197 -747#2 -747#1 -747#0 732#4 732#5 857#0 857#1 -726#2 -726#1 -726#0 691#0 691#2 691#3 691#4 691#5 -618#1 -618#0 582#1 582#2 582#3 -583#2 -583#1 -583#0"/>
    </vehicle>
    <vehicle id="passenger_2_1261" type="passenger2a" depart="18568.00" departLane="best">
        <route edges="-1369#2 -1369#1 1371 728#1 728#2 728#3 728#4 728#5 730#8 730#9 730#10 730#11 675 735 863#2 617#0 617#1 617#2 617#3 617#4 617#5 619 620 582#1 582#2 582#3 582#4 582#5 582#6 582#7 582#8 582#9 582#10 582#11 519#1 519#2 524#0 531 -520#1 -524#1"/>
    </vehicle>
    <vehicle id="passenger_2_950" type="passenger1" depart="18574.00" departLane="best">
        <route edges="-258 -567#0 -582#10 -582#9 -582#8 -582#7 -582#6 -582#5 -582#4 -582#3 -582#2 -582#1 618#0 618#1 -691#5 -691#4 -691#3 -691#2 -691#0 726#0 726#1 726#2 857#2 857#3 736 879#1 879#2 879#3 879#4 197 205#0 205#1 205#2 -202 211#1 210 -815#2 -815#1 -815#0 1492 895#2 895#3 895#4 895#1 -1492 815#0 815#1"/>
    </vehicle>
    <vehicle id="passenger_GW1_391" type="passenger4" depart="18584.00" departLane="best">
        <route edges="420 164 422 431 469 415#3 415#4 1309#0 1309#1 1309#2 1309#3 1309#4 1309#5 1309#6 1309#7 1311#2 1311#3 1311#4 1297#0 1297#1 199#0 199#1 -1300#4 -1300#3 -1300#2 1408#0 1408#1 1408#2 1408#3 1408#4 1408#5 1408#6 1408#7 97 -1306#2 -1306#1 -1306#0 1303#0 1303#1 1303#2 355#0 355#1 355#2 360#1 360#2 360#3 360#4 -240#1 -240#0"/>
        <stop parkingArea="152503" duration="43200.00"/>
    </vehicle>
    <vehicle id="passenger_1_308" type="passenger1" depart="18606.00" departLane="best">
        <route edges="1486#3 920 622#0 622#1 622#2 622#3 -617#2 -617#1 -617#0 111 862#0 862#1 -730#11 -730#10"/>
    </vehicle>
    <vehicle id="passenger_GW1_435" type="passenger2b" depart="18613.00" departLane="best">
        <route edges="1406 196 844 1405#1 194 1263 195 -1404#27 -1404#26 -1404#25 -1404#24 -1404#23 -1404#21 -1404#20 -1404#19 -1404#18 -1404#17 -1404#16 -1404#13 -1404#12 -1404#11 -1404#10 -1404#9 -1404#8 -1404#7 -1404#6 -1404#5 -1404#3 -1404#2 -1404#1 -1404#0 315 162 316#0 316#1 201 211#3 211#4 202 205#3 -197 -747#2 -747#1 -747#0 732#4 732#5 857#0 857#1 -726#2 -726#1 -726#0 691#0 -276 580 -691#2 -691#0 726#0"/>
    </vehicle>
    <vehicle id="passenger_GW1_782" type="passenger1" depart="18615.00" departLane="best">
        <route edges="420 164 422 431 469 415#3 415#4 1309#0 1309#1 1309#2 1309#3 1309#4 1309#5 1309#6 1309#7 -1311#1 -1311#0 -1313#0 -1250#5 -1250#4 -1252#11 -1252#10 -1252#9 -1252#8 -1252#7 -1252#6 -1252#5 -1252#4 -1252#2 -1252#1 -1252#0 -1343#1 -1343#0 1341#14 1341#15 1341#16 918 920 622#0 622#1 622#2 622#3 617#3 617#4 617#5 619 620 572#0 572#1 572#2 -593#5 -593#4 -593#3 -593#2 -593#1 -593#0 586 569#1 569#2 569#3 569#4 585#3 585#4 174 179"/>
    </vehicle>
    <vehicle id="passenger_3_337" type="passenger1" depart="18619.00" departLane="best">
        <route edges="-1380#1 1385 1387#1 1386#1 926#0 926#1 1578 223#0 223#1 223#2 223#3 223#4 223#5 223#6 223#7 223#8 223#9 223#10 295#1 295#2 818#0 818#1 908 730#0 730#1 730#2 730#3 730#4 730#5 730#6 730#7 730#8 730#9 730#10 730#11 675 735 863#2 617#0 617#1 617#2 -622#3 -622#2 631 627#0 628 394#5 609#2 -601#0"/>
    </vehicle>
    <vehicle id="passenger_3_364" type="passenger2a" depart="18621.00" departLane="best">
        <route edges="-1514 -1516#1 -1516#0 -1517 -1505#0 306#1 306#2 306#3 223#0 223#1 223#2 223#3 223#4 223#5 223#6 223#7 223#8 223#9 223#10 295#1 295#2 818#0 818#1 908 730#0 730#1 730#2 730#3 730#4 730#5 730#6 730#7 730#8"/>
    </vehicle>
    <vehicle id="passenger_GW2_249" type="passenger4" depart="18625.00" departLane="best">
        <route edges="-891 483#1 483#2 -897 -538#1 -538#0 -1352#1 650#0 -652#2 -652#1 -652#0 1319#0 1319#1 1494#0 1494#1 1248#0 1248#1 1248#2 1248#3 1248#4 1248#5 1248#6 1248#7 1248#8 1248#9 1248#10 1248#11 1248#12 -1256#7 -1256#6 -1256#5 -1256#4 -1256#3 -1256#2 -1256#1 -1256#0 -1372#0 -1369#3 -1369#2 -1369#1 1371 728#1 728#2 728#3 728#4 728#5 730#8 717 698 1484#2 1484#3 743#0 743#1 888#1 1480#0 1480#1 1480#2 1480#3 741#0 741#1 879#11 878#1 878#2 -737#2 -737#0 15#6 15#7 15#0 15#1 15#2 15#3 15#4 15#5"/>
    </vehicle>
    <vehicle id="passenger_3_2734" type="passenger1" depart="18631.00" departLane="best">
        <route edges="-1421 -1264 -1269#0 911#1 456 -913 -1422 -1285#2 -1282#2 -1282#1 -1282#0 -1287#1 -1287#0 851#3 851#0 -468#6 -468#5 -468#3 -468#2 -468#1 -468#0 1300#1 1408#0 1408#1 1408#2 1408#3 1408#4 1408#5 1408#6 1408#7 497#1 243 494#0 494#1 494#2 494#3 494#4 351#2 351#3 351#4 -350 -519#2 -519#1 -519#0 -582#10 -582#9 -582#8 -582#7 -582#6 -582#5 -582#4 630#1 621#2 594 447 561#0 562#0"/>
    </vehicle>
    <vehicle id="passenger_GW1_682" type="passenger1" depart="18648.00" departLane="best">
        <route edges="420 164 422 431 469 415#3 415#4 1309#0 1309#1 1309#2 1309#3 1309#4 1309#5 1309#6 1309#7 -1311#1 -1311#0 -1313#0 -1250#5 -1250#4 -1252#11 -1252#10 -1252#9 -1252#8 -1252#7 -1252#6 -1252#5 -1252#4 -1252#2 -1252#1 -1252#0 -1343#1 -1343#0 1341#14 1341#15 1341#16 918 920 622#0 622#1 622#2 622#3 -617#2 -617#1 -617#0 111 862#0 862#1 -730#11 -864#2 -864#1 -864#0 1484#1 1484#2 787#0 787#1 787#2 787#3 787#4 787#5 -816#1 -816#0 298#0 298#1"/>
    </vehicle>
    <vehicle id="passenger_GW1_1738" type="passenger4" depart="18651.00" departLane="best">
        <route edges="1406 196 844 1405#1 194 1263 195 -1404#27 -1404#26 -1404#25 -1404#24 -1404#23 -1404#21 -1404#20 -1404#19 -1404#18 -1404#17 -1404#16 -1404#13 -1404#12 -1404#11 -1404#10 -1404#9 -1404#8 -1404#7 -1404#6 -1404#5 -1404#3 -1404#2 -1404#1 -1404#0 315 162 316#0 316#1 201 211#3 211#4 202 205#3 -197 -747#2 -747#1 -747#0 732#4 732#5 857#0 857#1 -726#2 -726#1 -726#0 691#0 691#2 691#3 691#4 691#5 -618#1 -618#0 582#1 582#2 582#3 630#1 621#2 594 447 561#0 562#0 562#1 562#2 562#3 562#4 562#5 562#6 247#2 247#3 247#4 247#1 -562#6 -562#5 -562#4 -562#3 -562#2 -562#1"/>
    </vehicle>
    <vehicle id="passenger_3_2320" type="passenger1" depart="18653.00" departLane="best">
        <route edges="-1269#0 911#1 456 -913 -1422 -1285#2 -1282#2 -1282#1 -1282#0 -1287#1 -1287#0 851#3 851#0 -468#6 -468#5 -468#3 -468#2 -468#1 -468#0 1300#1 1408#0 1408#1 1408#2 1408#3 1408#4 1408#5 1408#6 1408#7 497#1 243 494#0 494#1 494#2 494#3 494#4 351#2 351#3 351#4 -350 -519#2 -519#1 -519#0 -582#10 -582#9 -582#8 -582#7 -582#6 -582#5 -582#4 -582#3 -582#2 -582#1 618#0 618#1 -691#5 -691#4 -691#3 -691#2 -691#0 726#0 726#1 726#2 857#2 857#3 736 879#1 879#2 879#3 879#4 197 205#0 205#1 205#2 -202 211#1 210 -815#2 -815#1 -815#0 1492 895#2 895#3 803#0 885#0 885#1 358#1 358#2 294#0 294#1 294#2"/>
    </vehicle>
    <vehicle id="passenger_3_2436" type="passenger1" depart="18653.00" departLane="best">
        <route edges="-1264 -1269#0 911#1 456 -913 -1422 -1285#2 -1282#2 -1282#1 -1282#0 -1287#1 -1287#0 851#3 851#0 -468#6 -468#5 -468#3 -468#2 -468#1 -468#0 1300#1 1408#0 1408#1 1408#2 1408#3 1408#4 1408#5 1408#6 1408#7 497#1 243 494#0 494#1 494#2 494#3 494#4 351#2 351#3 351#4 -350 -519#2 -519#1 -519#0 -582#10 -582#9 -582#8 -582#7 -582#6 -582#5 -582#4 -582#3 -582#2 -582#1 618#0 618#1 -691#5 -691#4 -691#3 -691#2 -691#0 726#0 726#1 726#2 857#2 857#3 736 879#1 879#2 879#3 879#4 879#5 879#6 879#7 879#8 879#9 879#11 878#1 878#2 878#3 -733#3"/>
    </vehicle>
    <vehicle id="passenger_3_2563" type="passenger1" depart="18659.00" departLane="best">
        <route edges="456 -913 -1422 -1285#2 -1282#2 -1282#1 -1282#0 -1287#1 -1287#0 851#3 851#0 -468#6 -468#5 -468#3 -468#2 -468#1 -468#0 1300#1 1300#2 1300#3 1300#4 -199#1 -199#0 -475 476#0 476#1 1302#1 1302#2 1302#3 1302#4 1302#5 1302#6 1302#7 1302#8 1302#9 1302#10 1302#11 1302#12 1302#13 1302#14 850#1 850#2 850#3 -1327#1 -1327#0 1341#0 1341#1 1341#3 1341#4 1341#5 1341#6 1341#7"/>
    </vehicle>
    <vehicle id="passenger_3_1797" type="passenger2a" depart="18660.00" departLane="best">
        <route edges="-1379#0 -1380#1 1385 1387#1 1386#1 926#0 926#1 1578 223#0 223#1 223#2 223#3 223#4 223#5 223#6 223#7 223#8 223#9 223#10 295#1 295#2 295#3 -808#1 -808#0 192 -809#1 -809#0 752#0 752#1 752#2 752#3 752#4 -746#2 -746#1 -746#0 -1369#1 -1369#0 -1373#1 -1373#0 924#1 925 729"/>
    </vehicle>
    <vehicle id="passenger_3_2340" type="passenger1" depart="18689.00" departLane="best">
        <route edges="976#0 974 1380#2 1379#1 1379#2 1379#3 1379#4 1384#0 1384#1 1384#2 1384#3 1384#4 1384#5 1384#6 928#6 303 1573#1 923#0 754 926#1 1578 223#0 223#1 223#2 223#3 223#4 223#5 223#6 223#7 223#8 223#9 223#10 295#1 295#2 818#0 818#1 213 299 -877 812#1 812#2 902#0 902#1 902#2 -903 790#0 790#1 790#2 790#3"/>
    </vehicle>
    <vehicle id="passenger_3_2306" type="passenger1" depart="18697.00" departLane="best">
        <route edges="-1273 -448 456 -913 -1422 -1285#2 -1282#2 -1282#1 -1282#0 -1287#1 -1287#0 851#3 851#0 851#1 -1244#4 -1244#3 -1244#2 -1244#1 -1244#0 -1291#3 470 -493#4 -493#3 -493#2 -493#1 -493#0 238#1 -491#1 -491#0 -499#2 -499#1 -499#0 521#1 257#3 257#0 257#1 -584#1 585#0"/>
    </vehicle>
    <vehicle id="passenger_GW1_334" type="passenger1" depart="18703.00" departLane="best">
        <route edges="1406 196 844 1405#1 194 1263 195 -1404#27 -1404#26 -1404#25 -1404#24 -1404#23 -1404#21 -1404#20 -1404#19 -1404#18 -1404#17 -1404#16 -1404#13 -1404#12 -1404#11 -1404#10 -1404#9 -1404#8 -1404#7 -1404#6 -1404#5 -1404#3 -1404#2 -1404#1 -1404#0 315 162 316#0 316#1 201 211#3 211#4 202 205#3 -197 -747#2 -747#1 -747#0 732#4 732#5 857#0 857#1 -726#2 -726#1 -726#0 691#0 691#2 691#3 691#4 691#5 -618#1 -618#0 582#1 582#2 582#3 582#4 582#5 582#6 582#7 582#8 582#9 582#10 582#11 519#1 519#2 519#3 351#1 351#2 529#0 529#1 529#2 352 -353#1 -353#0"/>
    </vehicle>
    <vehicle id="passenger_2_2316" type="passenger1" depart="18707.00" departLane="best">
        <route edges="1297#0 476#0 476#1 1302#1 1302#2 1302#3 1302#4 1302#5 1302#6 1302#7 1302#8 1302#9 1302#10 1302#11 1302#12 1302#13 1302#14 850#1 850#2 850#3 -1327#1 -1327#0 563#0 563#1 563#2 563#3 563#4 563#5 1334#0 1334#1 1334#2 859 600 630#3 619 620 572#0 572#1 572#2 -593#5 -593#4 592#0 592#1 592#2"/>
    </vehicle>
    <vehicle id="passenger_GW1_1403" type="passenger1" depart="18715.00" departLane="best">
        <route edges="420 164 422 431 469 415#3 415#4 1309#0 1309#1 1309#2 1309#3 1309#4 1309#5 1309#6 1309#7 -1311#1 -1311#0 -1313#0 -1250#5 -1250#4 -1250#3 -1250#2 -1250#1 -1250#0 850#3 -1327#1 -917#8 -917#7 -917#6 -917#5 -917#4 -917#3"/>
    </vehicle>
    <vehicle id="passenger_GW1_1647" type="passenger2a" depart="18732.00" departLane="best">
        <route edges="420 164 422 431 469 415#3 415#4 1309#0 1309#1 1309#2 1309#3 1309#4 1309#5 1309#6 1309#7 1311#2 1311#3 1311#4 1297#0 1297#1 199#0 199#1 -1300#4 -1300#3 -1300#2 1408#0 1408#1 1408#2 1408#3 1408#4 1408#5 1408#6 1408#7 497#1 243 494#0 494#1 494#2 494#3 494#4 351#2 351#3 520#0 -524#1 531"/>
    </vehicle>