<?xml version="1.0" encoding="UTF-8"?>

<!--
    Monaco SUMO Traffic (MoST) Scenario
    Copyright (C) 2018
    Lara CODECA

    This program is free software: you can redistribute it and/or modify
    it under the terms of the GNU General Public License as published by
    the Free Software Foundation, either version 3 of the License, or
    (at your option) any later version.

    This program is distributed in the hope that it will be useful,
    but WITHOUT ANY WARRANTY; without even the implied warranty of
    MERCHANTABILITY or FITNESS FOR A PARTICULAR PURPOSE.  See the
    GNU General Public License for more details.

    You should have received a copy of the GNU General Public License
    along with this program.  If not, see <http://www.gnu.org/licenses/>.
-->

<routes xmlns:xsi="http://www.w3.org/2001/XMLSchema-instance" xsi:noNamespaceSchemaLocation="http://sumo.dlr.de/xsd/routes_file.xsd">
    <vehicle id="passenger_3_374" type="passenger3" depart="18007.00" departLane="best">
        <route edges="993 -494#6 -494#5 -494#4 -494#3 -908 -549#1 -549#0 -1363#1 661#0 -663#2 -663#1 -663#0 1330#0 1330#1 1505#0 1505#1 1505#2 1331 1326#1 1326#2 -553#1 -553#0 -1323#5 -1323#4 -1323#3 -1323#2 -1323#1 -1323#0 148 1325 -1322#0 -149 -1324#1 -1324#0 -150 -1351#5 -1261#5 -1261#4 -1263#11 -1263#10 -1263#9 -1263#8 -1263#7 -1263#6 -1263#5 -1263#4 -1263#2 -1263#1 -1263#0 -1354#1 -1354#0 1352#14 1352#15 1352#16 929 931 633#0 633#1 633#2 633#3 707 694#2 694#3 643 287 702#2 -591"/>
    </vehicle>
    <vehicle id="passenger_1_350" type="passenger2b" depart="18031.00" departLane="best">
        <route edges="875#2 741#11 686 123 712#0 746"/>
    </vehicle>
    <vehicle id="passenger_2_1473" type="passenger1" depart="18037.00" departLane="best">
        <route edges="326 173 327#0 -867#2 -867#1"/>
    </vehicle>
    <vehicle id="passenger_3_2030" type="passenger1" depart="18057.00" departLane="best">
        <route edges="-1285 138 459 922#1 467 -924 -1433 -1296#2 -1293#2 -1293#1 -1293#0 -1298#1 -1298#0 862#3 862#0 -479#6 -479#5 -479#3 -479#2 -479#1 -479#0 1311#1 1419#0 1419#1 1419#2 1419#3 1419#4 1419#5 1419#6 1419#7 508#1 254 505#0 505#1 505#2 505#3 505#4 362#2 362#3 362#4 -361 -116 -530#3 -530#2 -530#1 -530#0 -593#10 -593#9 -593#8 -593#7 -593#6 -593#5 -593#4 -593#3 -593#2 -593#1 629#0 629#1 -702#5 -702#4 -702#3 -702#2 -702#0 737#0 737#1 737#2 868#2 868#3 747 890#1 890#2 890#3 890#4 208 216#0 216#1 216#2 -213 222#1 221 -826#2 -826#1 -826#0 905 815#1 815#2 828#1 913#4 913#0 913#1 -914 801#0 -822#1 -822#0"/>
    </vehicle>
    <vehicle id="passenger_GW1_917" type="passenger2b" depart="18063.00" departLane="best">
        <route edges="431 159 1574 160 1572 175 433 94 430#0 442 480 426#3 426#4 1320#0 1320#1 1320#2 1320#3 1320#4 1320#5 1320#6 1320#7 1322#2 1322#3 1322#4 -145 1308#0 1308#1 144 486 210#0 210#1 -1311#4 -1311#3 -1311#2 1419#0 1419#1 1419#2 1419#3 1419#4 1419#5 1419#6 1419#7 108 -1317#2 -1317#1 -1317#0 110 -501#1 1314#0 1314#1 1314#2 109 366#0 366#1 366#2 371#1 371#2 371#3 371#4 -251#1 372 -370#0"/>
    </vehicle>
    <vehicle id="passenger_1_15" type="passenger2a" depart="18073.00" departLane="best">
        <route edges="451#1 451#2 451#3 451#4 451#6 451#8 581 595#0 595#1 268#2 -532#1 -532#0 -117 510#0"/>
    </vehicle>
    <vehicle id="passenger_3_1205" type="passenger2b" depart="18094.00" departLane="best">
        <route edges="1398#0 1398#1 1397#1 937#0 937#1 128 1270 1589 234#0 234#1 234#2 234#3 234#4 234#5 234#6 234#7 234#8 234#9 234#10 306#1 306#2 829#0 829#1 224 310 10 329 823#2 -219 -904 913#0 913#1 913#3 -828#1 -815#2 -815#1 -815#0 826#0 826#1 826#2"/>
    </vehicle>
    <vehicle id="passenger_GW1_709" type="passenger2b" depart="18142.00" departLane="best">
        <route edges="1417 207 855 156 1416#0 1416#1 205 1274 206 -1415#27 -1415#26 -1415#25 -1415#24 -1415#23 -1415#21 -1415#20 -1415#19 -1415#18 -1415#17 -1415#16 -1415#13 -1415#12 -1415#11 -1415#10 -1415#9 -1415#8 -1415#7 -1415#6 -1415#5 -1415#3 -1415#2 -1415#1 -1415#0 326 173 327#0 327#1 212 222#3 222#4 213 216#3 -208 -758#2 -758#1 -758#0 743#4 743#5 868#0 868#1 -737#2 -737#1 -737#0 702#0 702#2 702#3 702#4 702#5 -629#1 -629#0 593#1 593#2 593#3 593#4 593#5 593#6 593#7 593#8 593#9 593#10 578#0 578#1 -259#0 -573#6 -573#5 -573#4"/>
    </vehicle>
    <vehicle id="passenger_1_589" type="passenger2a" depart="18152.00" departLane="best">
        <route edges="-1419#7 -1419#6 -1419#5 -1419#4 -1419#3 -1419#2 -1419#1 -1419#0 1311#2 1311#3 1311#4 -210#1 -210#0 -486 -144 -1308#1 487#0 487#1 106 1313#0 1313#1 1313#2 1313#3 1313#4 1313#5 1313#6 1313#7 1313#8 1313#9 1313#10 1313#11 1313#12 1313#13 1313#14 861#1 861#2 861#3 -1338#1 -1338#0 574#0 574#1 574#2 574#3 574#4 574#5 1345#0 1345#1 1345#2 606 641#2 641#3 -628#5 -628#4 -628#3 -628#2 -628#1 -628#0 122 873#0 720 712#2 899#0 899#1 1491#0 1491#1 1491#2 1491#3 752#0 752#1 890#11 889#1 889#2 889#3 -744#3 -744#2 -744#1 -744#0 -703 788 790 787"/>
    </vehicle>
    <vehicle id="passenger_GW1_1138" type="passenger2a" depart="18167.00" departLane="best">
        <route edges="1417 207 855 156 1416#0 1416#1 205 1274 206 -1415#27 -1415#26 -1415#25 -1415#24 -1415#23 -1415#21 -1415#20 -1415#19 -1415#18 -1415#17 -1415#16 -1415#13 -1415#12 -1415#11 -1415#10 940#0 940#1 940#2 940#3 940#4 940#5 940#6 940#7 309#2 827#0 827#1 827#2 204 -798#5 -798#4 -798#3 -798#2 -798#1 -798#0 1495#3 875#0 875#1 -734 -741#9 728"/>
    </vehicle>
    <vehicle id="passenger_GW1_793" type="passenger1" depart="18171.00" departLane="best">
        <route edges="431 159 1574 160 1572 175 433 94 430#0 442 480 426#3 426#4 1320#0 1320#1 1320#2 1320#3 1320#4 1320#5 1320#6 1320#7 -1322#1 -1322#0 -149 -1324#1 -1324#0 -150 -1351#5 -1261#5 -1261#4 -1263#11 -1263#10 -1263#9 -1263#8 -1263#7 -1263#6 -1263#5 -1263#4 -1263#2 -1263#1 -1263#0 -1354#1 -1354#0 1352#14 1352#15 1352#16 929 -1497#3 -1499"/>
    </vehicle>
    <vehicle id="passenger_3_208" type="passenger3" depart="18189.00" departLane="best">
        <route edges="922#1 467 -924 -1433 -1296#2 -1293#2 -1293#1 -1293#0 -1298#1 -1298#0 862#3 862#0 862#1 -1255#4 -1255#3 -1255#2 -1255#1 -1255#0 -1302#3 481 -504#4 -504#3 -504#2 -504#1 -504#0 249#1 -502#1 -502#0 -112 -510#3 -510#2 -510#1 -510#0 117 532#0 532#1 268#3 268#0 268#1 -595#1 596#0 596#1 596#2 596#3 596#4 185"/>
    </vehicle>
    <vehicle id="passenger_2_620" type="passenger1" depart="18201.00" departLane="best">
        <route edges="1325 -1322#0 -149 -1324#1 -1324#0 -150 -1351#5 -1351#4 -1351#3 -1351#2 -1351#1 -1351#0 -153 1362#1 1362#2 1362#3 1362#4 154#0 154#1 -1379#6 -1379#5 -1379#4 -1379#3 -1379#2 -1379#1 -1379#0 1383#2 1383#3 1383#4 1383#5 820#1 -203 819#0 819#1 306#0 306#1 306#2 829#0 818"/>
    </vehicle>
    <vehicle id="passenger_GW1_370" type="passenger1" depart="18231.00" departLane="best">
        <route edges="431 159 1574 160 1572 175 433 94 430#0 442 480 426#3 426#4 1320#0 1320#1 1320#2 1320#3 1320#4 1320#5 1320#6 1320#7 -1322#1 -1322#0 -149 -1324#1 -1324#0 -150 -1351#5 -1261#5 -1261#4 -1263#11 -1263#10 -1263#9 -1263#8 -1263#7 -1263#6 -1263#5 -1263#4 -1263#2 -1263#1 -1263#0 -1354#1 -1354#0 1352#14 1352#15 1352#16 929 931 633#0 633#1 633#2 633#3 -628#2 -628#1 -628#0 122 873#0 720 712#2 899#0 899#1 1491#0 1491#1 1491#2 1491#3 752#0 752#1 890#11 889#1 889#2 889#3 -744#3 -744#2 -744#1 -744#0"/>
    </vehicle>
    <vehicle id="passenger_2_336" type="passenger2b" depart="18249.00" departLane="best">
        <route edges="1381#3 1381#4 1381#5 892 -1384#1 -1384#0 -1343#8 -1343#7 -1343#6 -1343#5 -1343#4 -1343#3 -1343#2 -1343#1 1497#0 1497#1 1497#2 -1499 -1352#16 -1352#15 -1352#14 -1352#13 -1352#12 -1352#11 -1352#10 -1352#9 -1352#8 -1352#7 -1352#6 -1352#5 -1352#4 -1352#3 -1352#1 -1352#0 1338#0 -928#8 -928#7 -928#6 -928#5"/>
    </vehicle>
    <vehicle id="passenger_1_609" type="passenger3" depart="18282.00" departLane="best">
        <route edges="712#0 746 874#2 127 122 380#0"/>
    </vehicle>
    <vehicle id="passenger_3_3465" type="passenger1" depart="18309.00" departLane="best">
        <route edges="-459 -98 1285 467 -924 -1433 -1296#2 -1293#2 -1293#1 -1293#0 -1298#1 -1298#0 862#3 862#0 -479#6 -479#5 -479#3 -479#2 -479#1 -479#0 1311#1 1419#0 1419#1 1419#2 1419#3 1419#4 1419#5 1419#6 1419#7 508#1 254 505#0 505#1 -513#2 -513#1 -512 -187 517 -115 -871#4"/>
    </vehicle>
    <vehicle id="passenger_2_1909" type="passenger1" depart="18363.00" departLane="best">
        <route edges="-827#2 -827#1 -827#0 867#0 867#1 867#2 327#1 212 222#3 222#4 213 216#3 -208 -758#2 -758#1 -758#0 743#4 743#5 868#0 714#0 714#1 328 -1490#0"/>
    </vehicle>
    <vehicle id="passenger_3_332" type="passenger2b" depart="18376.00" departLane="best">
        <route edges="459 922#1 467 -924 -1433 -1296#2 -1293#2 -1293#1 -1293#0 -1298#1 -1298#0 862#3 862#0 -479#6 -479#5 -479#3 -479#2 -479#1 -479#0 1311#1 1419#0 1419#1 1419#2 1419#3 1419#4 1419#5 1419#6 1419#7 508#1 254 505#0 505#1 505#2 505#3 505#4 362#2 362#3 362#4 -361 -116 -530#3 -530#2 -530#1 -530#0 -593#10 -593#9 -593#8 -593#7 -593#6 -593#5 -593#4 -594#2 -594#1 -594#0 -604#4 603#0 603#1 603#2 386#0 386#1"/>
    </vehicle>
    <vehicle id="passenger_3_2751" type="passenger1" depart="18395.00" departLane="best">
        <route edges="155 1398#0 1398#1 1397#1 937#0 937#1 128 1270 1589 234#0 234#1 234#2 234#3 234#4 234#5 234#6 234#7 234#8 234#9 234#10 306#1 306#2 829#0 829#1 919 741#0 741#1 741#2 741#3 741#4 741#5 741#6 741#7 741#8 741#9 741#10 741#11 686 123 712#0 746 874#2 127 628#0 628#1 628#2 628#3 628#4 628#5 630 632#0 632#1 605"/>
    </vehicle>
    <vehicle id="passenger_GW1_706" type="passenger1" depart="18397.00" departLane="best">
        <route edges="1417 207 855 156 1416#0 1416#1 205 1274 206 -1415#27 -1415#26 -1415#25 -1415#24 -1415#23 -1415#21 -1415#20 -1415#19 -1415#18 -1415#17 -1415#16 -1415#13 -1415#12 -1415#11 -1415#10 -1415#9 -1415#8 -1415#7 -1415#6 -1415#5 -1415#3 -1415#2 -1415#1 823#1 823#2 -219 -904 913#0 913#1 -914 801#0 801#1 801#2 801#3 201 -571 305#2 305#3 305#4"/>
    </vehicle>
    <vehicle id="passenger_3_3175" type="passenger4" depart="18412.00" departLane="best">
        <route edges="-1284 -459 -98 1285 467 -924 -1433 -1296#2 -1293#2 -1293#1 -1293#0 -1298#1 -1298#0 862#3 862#0 -479#6 -479#5 -479#3 -479#2 -479#1 -479#0 1311#1 1419#0 1419#1 1419#2 1419#3 1419#4 1419#5 1419#6 1419#7 508#1 254 505#0 505#1 505#2 505#3 505#4 362#2 362#3 362#4 -361 -116 -530#3 -530#2 -530#1 -530#0 -593#10 -593#9 -593#8 -593#7 -593#6 -593#5 -593#4 -593#3 -593#2 -593#1 629#0 629#1 -702#5 -702#4 -702#3 -702#2 -702#0 737#0 737#1 737#2 868#2 868#3 747 890#1 890#2 890#3 890#4 208 216#0 216#1 216#2 -213 222#1 222#2 -212 184 446 234#8 -938#3 -938#2 -938#1 -938#0"/>
    </vehicle>
    <vehicle id="passenger_2_1319" type="passenger1" depart="18420.00" departLane="best">
        <route edges="531#7 531#8 531#9 427#1 -573#6 -573#5 -573#4 -573#3 -573#2 -573#1 -573#0 572#1 572#2 1344#0 1344#1 1344#2 1344#3 1345#0 1345#1 1345#2 606 641#2 641#3 -628#5 405#0 405#1 405#2 405#3 623 612#3 624 -405#1"/>
    </vehicle>
    <vehicle id="passenger_GW1_920" type="passenger1" depart="18420.00" departLane="best">
        <route edges="431 159 1574 160 1572 175 433 94 430#0 442 480 426#3 426#4 1320#0 1320#1 1320#2 1320#3 1320#4 1320#5 1320#6 1320#7 -1322#1 -1322#0 -149 -1324#1 -1324#0 -150 -1351#5 -1261#5 -1261#4 -1263#11 -1263#10 -1263#9 -1263#8 -1263#7 -1263#6 -1263#5 -1263#4 -1263#2 -1263#1 -1263#0 -1354#1 -1354#0 1352#14 1352#15 1352#16 929 931 633#0 633#1 633#2 633#3 -628#2 -628#1 -628#0 122 873#0"/>
    </vehicle>
    <vehicle id="passenger_2_2378" type="passenger2a" depart="18428.00" departLane="best">
        <route edges="504#0 504#1 504#2 504#3 504#4 -481 1302#3 -1304#4 -1304#3 -1304#2 -1304#1 -1304#0 250#1 114 508#1 254 505#0 505#1 505#2 505#3 505#4 362#2 362#3 362#4 -361 -116 -530#3 -530#2 -530#1 -530#0 -593#10 -593#9 -593#8 -593#7 -593#6 -593#5 -593#4 -593#3 -593#2 -593#1 629#0 629#1 -702#5 -702#4 -702#3 -702#2 -702#0 737#0 737#1 737#2 868#2 868#3 747 890#1 890#2 890#3 890#4 890#5 890#6 890#7 890#8 890#11 889#1 889#2 889#3 -744#3 -744#2 -744#1 -744#0 -703 788 790"/>
    </vehicle>
    <vehicle id="passenger_3_1412" type="passenger1" depart="18447.00" departLane="best">
        <route edges="-459 -98 1285 467 -924 -1433 -1296#2 -1293#2 -1293#1 -1293#0 -1298#1 -1298#0 862#3 862#0 -479#6 -479#5 -479#3 -479#2 -479#1 -479#0 1311#1 1419#0 1419#1 1419#2 1419#3 1419#4 1419#5 1419#6 1419#7 508#1 254 505#0 505#1 505#2 505#3 505#4 362#2 362#3 362#4 -361 -116 -530#3 535#0 535#1 -531#0"/>
    </vehicle>
    <vehicle id="passenger_GW1_729" type="passenger3" depart="18451.00" departLane="best">
        <route edges="431 159 1574 160 1572 175 433 94 430#0 442 480 426#3 426#4 1320#0 1320#1 1320#2 1320#3 1320#4 1320#5 1320#6 1320#7 -1322#1 -1322#0 -149 -1324#1 -1324#0 -150 -1351#5 -1261#5 -1261#4 -1263#11 -1263#10 -1263#9 -1263#8 -1263#7 -1263#6 -1263#5 -1263#4 -1263#2 -1263#1 -1263#0 -1354#1 -1354#0 1352#14 1352#15 1352#16 929 931 633#0 633#1 633#2 633#3 -628#2 -628#1 -628#0 122 873#0 873#1 -741#11 -741#10 -741#9 -741#8 -739#5 -1376"/>
    </vehicle>
    <vehicle id="passenger_GW1_1275" type="passenger1" depart="18456.00" departLane="best">
        <route edges="431 159 1574 160 1572 175 433 94 430#0 442 480 426#3 426#4 1320#0 1320#1 1320#2 1320#3 1320#4 1320#5 1320#6 1320#7 -1322#1 -1322#0 -149 -1324#1 -1324#0 -150 -1351#5 -1261#5 -1261#4 -1263#11 -1263#10 -1263#9 -1263#8 -1263#7 -1263#6 -1263#5 -1263#4 -1263#2 -1263#1 -1263#0 -1354#1 -1354#0 1352#14 1352#15 1352#16 929 931 633#0 633#1 633#2 633#3 -628#2 -628#1 -628#0 122 873#0 720 712#2 899#0 -718#1 723#0 723#1 -1491#2 -1491#1 -1491#0 -899#1"/>
    </vehicle>
    <vehicle id="passenger_2_2516" type="passenger2b" depart="18459.00" departLane="best">
        <route edges="426#1 426#2 426#3 426#4 1320#0 1320#1 1320#2 1320#3 1320#4 1320#5 1320#6 1320#7 -1322#1 -1325 -148 1323#0 1323#1 1323#2 1323#3 1323#4 1323#5 1323#6 553#1 -1326#2 -1326#1 -1331 1505#3 1505#0 1505#1 1259#0 1259#1 1259#2 1259#3 1259#4 1259#5 1259#6 1259#7 1259#8 1259#9 1259#10 1259#11 1259#12 -1267#7 -1267#6 -1267#5 -1267#4"/>
    </vehicle>
    <vehicle id="passenger_GW1_74" type="passenger2b" depart="18462.00" departLane="best">
        <route edges="441#0 445 183 448 90 230 89 232#0 232#1 191 782 96 452 301 1589 234#0 234#1 234#2 234#3 234#4 234#5 234#6 234#7 234#8 -938#3 -938#2 -938#1 -938#0 -827#1 -827#0 309#0 309#2 827#0 827#1"/>
        <stop parkingArea="152541" duration="43200.00"/>
    </vehicle>
    <vehicle id="passenger_GW1_879" type="passenger2b" depart="18503.00" departLane="best">
        <route edges="431 159 1574 160 1572 175 433 94 430#0 442 480 426#3 426#4 1320#0 1320#1 1320#2 1320#3 1320#4 1320#5 1320#6 1320#7 -1322#1 -1322#0 -149 -1324#1 -1324#0 -150 -1351#5 -1261#5 -1261#4 -1263#11 -1263#10 -1263#9 -1263#8 -1263#7 -1263#6 -1263#5 -1263#4 -1263#2 -1263#1 -1263#0 -1354#1 -1354#0 1352#14 1352#15 1352#16 929 931 633#0 633#1 633#2 633#3 -628#2 -628#1 -628#0 122 873#0 720 712#2 899#0 899#1 1491#0 1491#1 1491#2 1491#3 752#0 752#1 890#11 889#1 889#2 -748#2 -748#0 15#6 15#7 15#0 16 898 -173 -326 10 329 823#2 -219 -904 913#0 913#1 -914 801#0 801#1 801#2 304#0"/>
    </vehicle>
    <vehicle id="passenger_2_1620" type="passenger4" depart="18506.00" departLane="best">
        <route edges="-1261#1 -1261#0 861#3 -1338#1 -1338#0 574#0 574#1 574#2 574#3 574#4 574#5 1345#0 1345#1 1345#2 606 641#2 641#3 -628#5 -628#4 -628#3 -628#2 -628#1 -628#0 122 873#0 720 712#2 899#0 899#1 1491#0 1491#1 1491#2 1491#3 752#0 752#1 890#11 889#1 889#2 889#3 -744#3 -744#2 -744#1 -744#0 -703 690 687 -701 700 699"/>
    </vehicle>
    <vehicle id="passenger_3_2117" type="passenger4" depart="18519.00" departLane="best">
        <route edges="-1432 -1275 -1280#0 922#1 467 -924 -1433 -1296#2 -1293#2 -1293#1 -1293#0 -1298#1 -1298#0 862#3 862#0 -479#6 -479#5 -479#3 -479#2 -479#1 -479#0 1311#1 1419#0 1419#1 1419#2 1419#3 1419#4 1419#5 1419#6 1419#7 508#1 254 505#0 505#1 505#2 505#3 505#4 362#2 362#3 362#4 -361 -116 -530#3 -530#2 -530#1 -530#0 -593#10 -593#9 -593#8 -593#7 -593#6 -593#5 -593#4 641#1 641#2 641#3 -628#5 -628#4 -628#3 -633#3 -633#2 -633#1 -633#0 -931 -929 -1352#16 -1352#15 -1352#14 -1352#13 -1352#12 -1352#11 -1352#10 -1352#9 -1352#8 -1352#7 -1352#6 -1352#5 -1352#4 -1352#3"/>
    </vehicle>
    <vehicle id="passenger_3_1164" type="passenger1" depart="18522.00" departLane="best">
        <route edges="1276 -1275 -1280#0 922#1 467 -924 -1433 -1296#2 -1293#2 -1293#1 -1293#0 -1298#1 -1298#0 862#3 862#0 862#1 -1255#4 -1255#3 -1255#2 -1255#1 -1255#0 -1302#3 481 -504#4 -504#3 -504#2 -504#1 -504#0 249#1 -502#1 -502#0 -112 -510#3 -510#2 -510#1 -510#0 117 532#0 532#1 268#3 268#0 268#1 -595#1 596#0 596#1 596#2 596#3 580#0 272 -588 -192 -689 -714#2"/>
    </vehicle>
    <vehicle id="passenger_3_1064" type="passenger2a" depart="18524.00" departLane="best">
        <route edges="393 -1333#2 -1333#1 -1333#0 -321#2 -321#1 -321#0 320 352#1 -1374#3 -1374#2 -1374#1 -1374#0 1390#6 1390#7 1372#1 661#0 -663#2 -663#1 -663#0 1330#0 1330#1 1505#0 1505#1 1505#2 1331 1326#1 1326#2 -553#1 -553#0 -1323#5 -1323#4 -1323#3 -1323#2 -1323#1 -1323#0 148 1325 -1322#0 -149 -1324#1 -1324#0 -150 -1351#5 -1261#5 -1261#4 -1263#11 -1263#10 -1263#9 -1263#8 -1263#7 -1263#6 -1263#5 -1263#4 -1263#2 -1263#1 -1263#0 -1354#1 -1354#0 1352#14 1352#15 1352#16 929 931 633#0 633#1 633#2 633#3 628#3 628#4 628#5 630 631 629#0 -615#2 -615#1 -878#1"/>
    </vehicle>
    <vehicle id="passenger_GW1_1024" type="passenger1" depart="18534.00" departLane="best">
        <route edges="441#0 445 183 448 90 230 89 232#0 232#1 191 782 96 452 301 1589 234#0 234#1 234#2 234#3 234#4 234#5 234#6 234#7 234#8 234#9 234#10 306#1 306#2 829#0 829#1 224 310 10"/>
    </vehicle>
    <vehicle id="passenger_3_3101" type="passenger2b" depart="18588.00" departLane="best">
        <route edges="459 922#1 467 -924 -1433 -1296#2 -1293#2 -1293#1 -1293#0 -1298#1 -1298#0 862#3 862#0 -479#6 -479#5 -479#3 -479#2 -479#1 -479#0 1311#1 1419#0 1419#1 1419#2 1419#3 1419#4 1419#5 1419#6 1419#7 508#1 254 505#0 505#1 505#2 505#3 505#4 362#2 362#3 531#0 -535#1 542 531#2 531#3 531#4 531#5 531#6 531#7 531#8 531#9 427#1 -573#6 1337#0 1337#1 1337#2 1337#3"/>
    </vehicle>
    <vehicle id="passenger_1_817" type="passenger1" depart="18595.00" departLane="best">
        <route edges="728 709 1495#2 1495#3 875#0 875#1 875#2 741#11 686 123 712#0 746 874#2 127 628#0 628#1 628#2 -633#3 -635#1"/>
    </vehicle>
    <vehicle id="passenger_3_3302" type="passenger1" depart="18617.00" departLane="best">
        <route edges="1398#1 1397#1 937#0 937#1 128 1270 1589 234#0 234#1 234#2 234#3 234#4 234#5 234#6 234#7 234#8 234#9 234#10 306#1 306#2 306#3 -819#1 -819#0 203 -820#1 -820#0 -1383#4 -1383#3 -1383#2 -1383#0 -1380#3 -1380#2"/>
    </vehicle>
    <vehicle id="passenger_1_91" type="passenger2a" depart="18622.00" departLane="best">
        <route edges="712#2 899#0 -754#1 -754#0 875#0 875#1 875#2 741#11 686 123 712#0 746 874#2 127 122 380#0"/>
    </vehicle>
    <vehicle id="passenger_2_1188" type="passenger4" depart="18624.00" departLane="best">
        <route edges="-1502#0 -220 1501 -815#1 -815#0 826#0 826#1 826#2 -202 784 15#3 15#4 15#5 15#6 15#7 -17 222#4 213 216#3 -208 890#5 890#6 890#7 890#8 -752#1 -752#0 -1491#3 -1491#2 -1491#1 -1491#0 -899#1 -899#0 874#0 874#1 874#2 127 628#0 628#1 628#2 -633#3 -633#2 -633#1 -633#0 -931 -929 -1352#16 -1352#15 -1352#14 -1352#13 -1352#12 -1352#11 -1352#10 -1352#9 -1352#8 -1352#7 -1352#6 -1352#5 -1352#4 -1352#3 -1352#1 -1352#0 1338#0"/>
    </vehicle>
    <vehicle id="passenger_GW2_580" type="passenger1" depart="18627.00" departLane="best">
        <route edges="-1399 155 1398#0 1398#1 1397#1 937#0 937#1 128 1270 1589 234#0 234#1 234#2 234#3 234#4 234#5 234#6 234#7 234#8 234#9 234#10 306#1 306#2 829#0 829#1 919 741#0 741#1 741#2 741#3 741#4 741#5 741#6 741#7 741#8 741#9 741#10 741#11 686 123 712#0 746 874#2 127 628#0 628#1 628#2 628#3 628#4 628#5 630 631 593#1 593#2 593#3 593#4 593#5 593#6 593#7 593#8 593#9 593#10 593#11 530#1 530#2 530#3 116 361 362#1 -505#4 -505#3 -505#2 -505#1 -505#0 499 111 250#1 114 508#1 508#2"/>
    </vehicle>
    <vehicle id="passenger_1_284" type="passenger1" depart="18633.00" departLane="best">
        <route edges="874#1 874#2 127 628#0 628#1 628#2 628#3 628#4 628#5 630 631 593#1 593#2 593#3 593#4 593#5 593#6 593#7 593#8 593#9 593#10 593#11 530#1 530#2 530#3 116 361 362#1 362#2 362#3 531#0 -535#1 -535#0"/>
    </vehicle>
    <vehicle id="passenger_1_243" type="passenger1" depart="18648.00" departLane="best">
        <route edges="745#4 743#0 743#1 743#2 743#3 758#0 293#1 293#2 -711#1 -711#0 -693#1 -693#0 890#7 890#8 -752#1 -752#0 -1491#3 -1491#2 -1491#1 -1491#0 -899#1 -754#1 -754#0 1495#1 -709 -728 -741#8 -741#7 -741#6 -741#5 -741#4 -741#3 -741#2 824 741#1 741#2 741#3 741#4"/>
    </vehicle>
    <vehicle id="passenger_2_769" type="passenger1" depart="18649.00" departLane="best">
        <route edges="553#1 1326#3 1326#4 -553#0 -1323#5 -1323#4 -1323#3 -1323#2 -1323#1 -1323#0 148 1325 -1322#0 -149 -1324#1 -1324#0 -150 -1351#5 -1261#5 -1261#4 -1263#11 -1263#10 -1263#9 -1263#8 -1263#7 -1263#6 -1263#5 -1263#4 -1263#2 -1263#1 -1263#0 -1354#1 -1354#0 1352#14 1352#15 1352#16 929 931 633#0 633#1 633#2 633#3 -628#2 -628#1 -628#0 122 873#0 720 712#2 899#0 899#1 1491#0 1491#1 1491#2 1491#3 752#0 752#1 890#11 889#1 889#2 -748#2 -748#0 15#6 15#7 15#0 15#1 15#2 -784 202 -826#2 -826#1 1502#3 1502#4 -800"/>
    </vehicle>
    <vehicle id="passenger_2_157" type="passenger1" depart="18654.00" departLane="best">
        <route edges="-1294#3 238 93 239 1294#4 1257#2 1301#0 1299#0 1299#1 100 1258#0 1258#1 1258#2 1258#3 1258#4 1311#1 1419#0 1419#1 1419#2 1419#3 1419#4 1419#5 1419#6 1419#7 508#1 254 505#0 505#1 505#2 505#3 505#4 362#2 362#3 362#4 -361 -116 -530#3 -530#2 -530#1 -530#0 -593#10 -593#9 -593#8 -593#7 -593#6 -593#5 -593#4 -593#3 -593#2 -593#1 629#0 629#1 -702#5 -702#4 -702#3 -702#2 -702#0 737#0 737#1 737#2 868#2 868#3 868#4 868#0 714#0 863 -716#4 -716#3"/>
    </vehicle>
    <vehicle id="passenger_GW2_879" type="passenger2a" depart="18658.00" departLane="best">
        <route edges="1391#0 1391#1 1391#2 1390#1 1390#2 1390#3 1390#4 1390#5 1390#6 1390#7 1372#1 661#0 -663#2 -663#1 -663#0 1330#0 1330#1 1505#0 1505#1 1259#0 1259#1 1259#2 1259#3 1259#4 1259#5 1259#6 1259#7 1259#8 1259#9 1259#10 1259#11 1259#12 -1267#7 -1267#6 -1267#5 -1267#4 -1267#3 -1267#2 -1267#1 -1267#0 -1383#0 -1380#3 -1380#2 -1380#1 -1380#0 -1384#1 -1384#0 935#1 936 -901#5 -901#4 -901#3 -901#2 -901#1 -901#0"/>
    </vehicle>
    <vehicle id="passenger_3_3089" type="passenger1" depart="18666.00" departLane="best">
        <route edges="-98 1285 467 -924 -1433 -1296#2 -1293#2 -1293#1 -1293#0 -1298#1 -1298#0 862#3 862#0 -479#6 -479#5 -479#3 -479#2 -479#1 -479#0 1311#1 1419#0 1419#1 1419#2 1419#3 1419#4 1419#5 1419#6 1419#7 508#1 254 505#0 505#1 505#2 505#3 505#4 362#2 362#3 362#4 -361 -116 -530#3 -530#2 -530#1 -530#0 -593#10 -593#9 -593#8 -593#7 -593#6 -593#5 -593#4 -593#3 -593#2 -593#1 629#0 629#1 -702#5 -702#4 -702#3 -702#2 -702#0 737#0 737#1 737#2 868#2 868#3 747 890#1 732#0 -758#1 -758#0 743#4 -738"/>
    </vehicle>
    <vehicle id="passenger_GW1_924" type="passenger1" depart="18682.00" departLane="best">
        <route edges="441#0 445 183 448 90 230 89 232#0 232#1 191 782 96 452 301 1589 234#0 234#1 234#2 234#3 234#4 234#5 234#6 234#7 234#8 234#9 234#10 306#1 306#2 829#0 829#1 919 741#0 741#1 741#2 741#3 741#4 741#5 741#6 741#7 741#8 741#9 741#10 741#11 686 123 712#0 746 874#2 127 628#0 628#1 628#2 628#3 628#4 628#5 630 632#0 632#1 605 458"/>
    </vehicle>
    <vehicle id="passenger_3_672" type="passenger1" depart="18699.00" departLane="best">
        <route edges="-1284 -459 -98 1285 467 -924 -1433 -1296#2 -1293#2 -1293#1 -1293#0 -1298#1 -1298#0 862#3 862#0 -479#6 -479#5 -479#3 -479#2 -479#1 -479#0 1311#1 1419#0 1419#1 1419#2 1419#3 1419#4 1419#5 1419#6 1419#7 508#1 254 505#0 505#1 505#2 505#3 505#4 362#2 362#3 362#4 -361 -116 -530#3 -530#2 -530#1 -530#0 -593#10 -593#9 -593#8 -593#7 -593#6 -593#5 -593#4 -593#3 -593#2 -593#1 629#0 629#1 -702#5 -702#4 -702#3 -702#2 -702#0 737#0 737#1 737#2 868#2 868#3 747 890#1 890#2 890#3 890#4 208 216#0 216#1 216#2 -213 222#1 221 -826#2 -826#1 -826#0 1503"/>
    </vehicle>
    <vehicle id="passenger_2_1304" type="passenger1" depart="18706.00" departLane="best">
        <route edges="641#1 641#2 641#3 -628#5 -628#4 -628#3 -628#2 -628#1 -628#0 122 873#0 720 712#2 899#0 899#1 1491#0 1491#1 1491#2 1491#3 752#0 752#1 890#11 889#1 889#2 -748#2 -748#0 15#6 15#7 15#0 16 898 327#0 -867#2 -867#1 -867#0"/>
    </vehicle>
    <vehicle id="passenger_3_195" type="passenger2b" depart="18709.00" departLane="best">
        <route edges="138 459 922#1 467 -924 -1433 -1296#2 -1293#2 -1293#1 -1293#0 -1298#1 -1298#0 862#3 862#0 -479#6 -479#5 -479#3 -479#2 -479#1 -479#0 1311#1 1419#0 1419#1 1419#2 1419#3 1419#4 1419#5 1419#6 1419#7 508#1 254 505#0 505#1 505#2 505#3 505#4 362#2 362#3 362#4 -361 -116 -530#3 -530#2 -530#1 -530#0 -593#10 -593#9 -593#8 -593#7 -593#6 -593#5 -593#4 641#1 641#2 641#3 -628#5 -628#4 -628#3 -628#2 -628#1 -628#0 122 873#0 720 712#2 899#0 899#1 899#2 899#3 899#4 899#5 918#0 918#1 759#0 759#1 759#2 759#3 750#0 750#1 750#2 750#3"/>
    </vehicle>
    <vehicle id="passenger_3_3505" type="passenger1" depart="18717.00" departLane="best">
        <route edges="-1329#1 -1329#0 -908 -549#1 -549#0 -1363#1 661#0 -663#2 -663#1 -663#0 1330#0 1330#1 1505#0 1505#1 1505#2 1331 1326#1 1326#2 -553#1 -553#0 -1323#5 -1323#4 -1323#3 -1323#2 -1323#1 -1323#0 148 1325 -1322#0 -149 -1324#1 -1324#0 -150 -1351#5 -1261#5 -1261#4 -1263#11 -1263#10 -1263#9 -1263#8 -1263#7 -1263#6 -1263#5 -1263#4 -1263#2 -1263#1 -1263#0 -1354#1 -1354#0 1352#14 1352#15 1352#16 929 931 633#0 633#1 633#2 633#3 628#3 628#4 628#5 630 631 583#0 583#1 583#2 -604#5 -604#4 -604#3 -604#2 -604#1 -604#0 597 580#1 580#2 580#3 580#4 596#3 596#4 185 -193 -688 -194 -727 -195 -721 196"/>
    </vehicle>
    <vehicle id="passenger_2_1586" type="passenger2b" depart="18718.00" departLane="best">
        <route edges="-1260 -134 562 1430#0 1430#1 1430#2 1430#3 1430#4 1430#5 1326#0 1326#1 1326#2 -553#1 -553#0 -1323#5 -1323#4 -1323#3 -1323#2 -1323#1 -1323#0 148 1325 -1322#0 -149 -1324#1 -1324#0 -150 -1351#5 -1261#5 -1261#4 -1263#11 -1263#10 -1263#9 -1263#8 -1263#7 -1263#6 -1263#5 -1263#4 -1263#2 -1263#1 -1263#0 -1354#1 -1354#0 1352#14 1352#15 1352#16 929 931 633#0 633#1 633#2 633#3 707 694#2 -466 -869#2 -869#1 -869#0 121 731 737#1 737#2 868#2 868#3 868#4"/>
    </vehicle>
    <vehicle id="passenger_3_3597" type="passenger2a" depart="18720.00" departLane="best">
        <route edges="894 301 1589 234#0 234#1 234#2 234#3 234#4 234#5 234#6 234#7 234#8 234#9 234#10 306#1 306#2 829#0 829#1 919 741#0 741#1 741#2 741#3 741#4 741#5 741#6 741#7 741#8 741#9 741#10 741#11 686 123 712#0 746 874#2 127 628#0 628#1 628#2 628#3 628#4 628#5 630 632#0 632#1 605 458 572#0 572#1 572#2 1335#0 1335#1 1335#2 1335#3 1335#4 943#0 943#1 574#1 574#2 574#3 574#4 574#5"/>
    </vehicle>
    <vehicle id="passenger_3_521" type="passenger1" depart="18724.00" departLane="best">
        <route edges="934#1 937#0 937#1 128 1270 1589 234#0 234#1 234#2 234#3 234#4 234#5 234#6 234#7 234#8 234#9 234#10 306#1 306#2 829#0 829#1 919 741#0 741#1 741#2 741#3 741#4 741#5 741#6 741#7 741#8 741#9 741#10 741#11 686 123 712#0 746 874#2 127 628#0 694#0 694#1 694#2 694#3 643 591 -702#2 -599#2 878#0 878#1 615#1"/>
    </vehicle>
    <vehicle id="passenger_1_437" type="passenger2a" depart="18732.00" departLane="best">
        <route edges="712#2 899#0 -754#1 -754#0 1495#1 1495#2 798#0 798#1 798#2 798#3 798#4 798#5 -204 -827#2 -827#1 -827#0 309#0 309#2 827#0 827#1 827#2 204"/>
    </vehicle>
    <vehicle id="passenger_3_985" type="passenger3" depart="18737.00" departLane="best">
        <route edges="229#0 318 447 232#1 191 782 96 452 301 1589 234#0 234#1 234#2 234#3 234#4 234#5 234#6 234#7 234#8 -938#3 -938#2 -938#1 -938#0 827#2 204 -798#5 -798#4 -798#3 -798#2 -798#1 -798#0 1495#3 1495#1 -709 -728 -741#8 -741#7 -741#6 -741#5 -741#4 -741#3"/>
    </vehicle>
    <vehicle id="passenger_GW1_627" type="passenger2a" depart="18759.00" departLane="best">
        <route edges="1417 207 855 156 1416#0 1416#1 205 1274 206 -1415#27 -1415#26 -1415#25 -1415#24 -1415#23 -1415#21 -1415#20 -1415#19 -1415#18 -1415#17 -1415#16 -1415#13 -1415#12 -1415#11 -1415#10 -1415#9 -1415#8 -1415#7 -1415#6 -1415#5 -1415#3 -1415#2 -1415#1 -1415#0 326 173 327#0 327#1 212 222#3 222#4 213 216#3 -208 -758#2 -758#1 -758#0 743#4 743#5 868#0 868#1 -737#2 -737#1 -737#0 702#0 702#2 702#3 702#4 702#5 -629#1 -629#0 593#1 593#2 593#3 641#1 605 458 572#0 573#0 1339"/>
    </vehicle>
    <vehicle id="passenger_2_866" type="passenger1" depart="18773.00" departLane="best">
        <route edges="-549#0 -1363#1 661#0 -663#2 -663#1 -663#0 1330#0 1330#1 1505#0 1505#1 1259#0 1259#1 1259#2 1259#3 1259#4 1259#5 1259#6 1259#7 1259#8 1259#9 1259#10 1259#11 1259#12 -1267#7 -1267#6 -1267#5 -1267#4 -1267#3 -1267#2 -1267#1 -1267#0 -1383#0 -1380#3 -1380#2 -1380#1 1382 739#1 739#2 739#3 739#4 739#5 741#8 728 709 1495#2 1495#3 754#0 754#1 899#1 1491#0 1491#1 1491#2 1491#3 752#0 752#1 890#11 889#1 889#2 889#3 889#4 706 745#0 745#1 745#2 745#3 745#4 296 294"/>
    </vehicle>
    <vehicle id="passenger_2_1339" type="passenger1" depart="18779.00" departLane="best">
        <route edges="-1339 -573#0 572#1 572#2 1344#0 1344#1 1344#2 1344#3 1345#0 1345#1 1345#2 606 641#2 641#3 -628#5 -628#4 -628#3 -628#2 -628#1 -628#0 122 873#0 720 712#2 899#0 899#1 1491#0 1491#1 1491#2 1491#3 752#0 752#1 890#11 889#1 889#2 -748#2 -748#0 15#6 15#7 15#0 15#1 15#2 -784 202 -826#2 -826#1 -826#0 1503 906#2 906#3 814#0 896#0 896#1 369#2 305#0 305#1 305#2 305#3 305#4"/>
    </vehicle>
    <vehicle id="passenger_1_239" type="passenger1" depart="18785.00" departLane="best">