<?xml version="1.0" encoding="UTF-8"?>

<!--
    Monaco SUMO Traffic (MoST) Scenario
    Copyright (C) 2019
    Lara CODECA

    This program is free software: you can redistribute it and/or modify
    it under the terms of the GNU General Public License as published by
    the Free Software Foundation, either version 3 of the License, or
    (at your option) any later version.

    This program is distributed in the hope that it will be useful,
    but WITHOUT ANY WARRANTY; without even the implied warranty of
    MERCHANTABILITY or FITNESS FOR A PARTICULAR PURPOSE.  See the
    GNU General Public License for more details.

    You should have received a copy of the GNU General Public License
    along with this program.  If not, see <http://www.gnu.org/licenses/>.
-->

<routes xmlns:xsi="http://www.w3.org/2001/XMLSchema-instance" xsi:noNamespaceSchemaLocation="http://sumo.dlr.de/xsd/routes_file.xsd"> 
    <vehicle id="special_1-3_87" type="special" depart="18006" departLane="best" arrivalPos="random">
        <route edges="-153559#0 -152887#1 -152887#0 152898#0 152898#1 152898#2 -152299 152857 152137#3 152137#4 152137#5 152137#6 152137#7 -152139 152318#4 152318#1 152318#2 -152308 152281 152530 -152330#5 -152330#4 -152330#3 -152330#2 -152330#1 -152330#0 153637 153634#1 153636#1 153002#0 153002#1 -153458#1 152903"/>
    </vehicle>
    <vehicle id="special_3-1_192" type="special" depart="18033" departLane="best" arrivalPos="random">
        <route edges="152903 153477#1 152302 153342 152303 -153476#26 -153476#25 -153476#24 -153476#23 -153476#22 -153476#20 -153476#19 -153476#18 -153476#17 -153476#16 -153476#15 -153476#14 -153476#13 -153476#12 -153476#11 -153476#10 -153476#9 -153476#8 -153476#7 -153476#6 -153476#5 -153476#3 -153476#2 -153476#1 -153476#0 152418 152270 152419#0 152419#1 152308 152318#3 152318#4 152309 152312#3 -152305 -152831#2 -152831#1 -152831#0 152816#4 152816#5 -152810#2 -152810#1 -152810#0 152775#0 152775#2 152775#3 152775#4 152775#5 -152702#1 -152702#0 152667#1 152667#2 152667#3 152667#4 152667#5 152667#6 152667#7 152667#8 152667#9 152667#10 152667#11 152605#1 152605#2 152169 152223 152453 152454#1 -152582#4 -152582#3"/>
    </vehicle>
    <vehicle id="special_1-2_157" type="special" depart="18060" departLane="best" arrivalPos="random">
        <route edges="152309 152312#3 152312#0 152312#1 152312#2 -152309 152318#1 152318#2 152318#3 152139 152137#0 152138 152968 -152270 -152418 -152958 153476#1 153476#2 153476#3 153476#5 153476#6 153476#7 153476#8 153476#9 153476#10 153476#11 153476#12 153476#13 153476#14 153476#15 153476#16 153476#17 153476#18 153476#19 153476#20"/>
    </vehicle>
    <vehicle id="special_1-1_261" type="special" depart="18074" departLane="best" arrivalPos="random">
        <route edges="-152685#0 152694#1 -152694#1 -152694#0 152685#2 152685#3 152697 -152491#1 -152491#0 152701#5 152703 152704 152657#0 152657#1 152657#2 -152677#5 -152677#4 -152677#3 -152677#2 -152677#1 -152677#0 152654#0 152654#1 152654#2 152534#0 152534#2 152535#4"/>
    </vehicle>
    <vehicle id="special_1-1_43" type="special" depart="18090" departLane="best" arrivalPos="random">
        <route edges="152938#0 152938#1 152938#2 152419#1 152308 152318#3 152318#4 152309 152312#3 -152305 152960#5 152960#6 152960#7 152960#8 -152825#1 -152825#0"/>
    </vehicle>
    <vehicle id="special_3-1_171" type="special" depart="18110" departLane="best" arrivalPos="random">
        <route edges="-153458#0 -153459#0 -152256 153460 -153460 152256 153459#0 153459#1 153458#1 153005#0 153005#1 152235 153338 153641 152330#0 152330#1 152330#2 152330#3 152330#4 152330#5 152166 152168#0 152168#1 152399#1 152399#2 152399#3 -152891#1 -152891#0 152300 -152892#1 -152892#0 -153444#4 -153444#3 -153444#2 -153444#0 153440#1 153440#2 153440#3 153440#4 153440#5 153440#6 -152255#1 -152255#0 -153423#4 -153423#3 153410#0 153410#1 153410#2 153410#3 153410#4 153410#5 153410#6 153410#7 153410#8 153410#9 153331#4 152996#0 152996#2 152996#3 152996#4 152996#5 152996#6 152996#7"/>
    </vehicle>
    <vehicle id="special_3-1_4" type="special" depart="18201" departLane="best" arrivalPos="random">
        <route edges="153459#1 153458#1 153005#0 153005#1 152235 153338 153641 152330#0 152330#1 152330#2 152330#3 152330#4 152330#5 152166 152168#0 152168#1 152399#1 152399#2 152901#0 152901#1 152988 152814#0 152814#1 152814#2 -152836#6 -152836#5 -152836#4"/>
    </vehicle>
    <vehicle id="special_1-2_38" type="special" depart="18206" departLane="best" arrivalPos="random">
        <route edges="152297#0-AddedOffRampEdge 152297#1 152967 152816#2 152816#3 152816#4 152816#5 -152810#2 -152810#1 -152810#0 152775#0 152775#2 152775#3 152775#4 152775#5 -152702#1 -152702#0 152667#1 152667#2 152667#3 152667#4 152667#5 152667#6 152667#7 152667#8 152667#9 152667#10 152667#11 152605#1 152605#2 152169 152223 152453 152454#1 -152582#4 -152582#3 -152582#2 -152582#1 -152582#0 152576 152219 152346#1 152221 -153480#7 -153480#6 -153480#5 -153480#4 -153480#3 -153480#2 -153480#1 -153480#0 -153372#1 -153326#4 -153326#3 -153326#2 -153326#1 -153326#0 -153360#0 -153362#0 -153325#2 -153325#1 -153325#0"/>
    </vehicle>
    <vehicle id="special_1-3_168" type="special" depart="18211" departLane="best" arrivalPos="random">
        <route edges="-152293 152794 152292 152800 152291 152761 152290 152287 152654#1 152654#2 152654#3 152654#4 152670#3 152670#4 152282 -152290 -152761 -152291 -152800 -152292 -152794 152293 152385 -152206 152461 152311 152312#2 -152309 152318#1 152318#2 -152308 152281 152530 -152330#5 -152330#4 -152330#3 -152330#2 -152330#1 -152330#0 153637 153634#1 153636#1 153002#0 153002#1 -153458#1 -153458#0 -153457"/>
    </vehicle>
    <vehicle id="special_1-3_149" type="special" depart="18229" departLane="best" arrivalPos="random">
        <route edges="-153414#1 -153414#0 153414#0 153414#1 153414#2 152681 152649#3 152649#4 152649#5 153406#0 153406#1 153406#2 152940 152684 152174#1 -152701#5 -152701#4 -152701#3 -152701#2 -152701#1 -152701#0 152229 152943#0 152943#1 -152814#11 -152814#10 -152814#9 -152814#8 -152814#7 -152814#6 -152814#5 -152814#4 -152814#3 -152814#2 -152814#1 -152814#0 152989 -152901#1 -152901#0 152399#3 152399#0 -152168#1 -152168#0 -152166 -152330#5 -152330#4 -152330#3 -152330#2 -152330#1 -152330#0 153637 153634#1 153636#1 153002#0 153002#1 -153458#1 -153458#0 -153457"/>
    </vehicle>
    <vehicle id="special_1-2_149" type="special" depart="18241" departLane="best" arrivalPos="random">
        <route edges="-152398#0 152458#3 -152451 152874#1 152874#2 153638 152297#0 152297#0-AddedOffRampEdge 152297#1 152967 152816#2 152816#3 152816#4 152816#5 -152810#2 -152810#1 -152810#0 152775#0 -152381 -152716 -152767#3 -152767#2 -152767#1 -152767#0 -152701#0 152229 152943#0 152943#1 -152814#11 -152814#10 -152814#9 -152814#8 -152812#5 -152812#4 -152812#3 -152812#2 -152812#1 -152812#0 -153441#0 -153445#1"/>
    </vehicle>
    <vehicle id="special_1-1_97" type="special" depart="18246" departLane="best" arrivalPos="random">
        <route edges="152814#2 152814#3 152814#4 152814#5 152814#6 152814#7 152814#8 152814#9 152814#10 152814#11 152759 152230 152785#0 152785#1 152785#2 152167 152827#0 152827#1"/>
    </vehicle>
    <vehicle id="special_3-1_12" type="special" depart="18254" departLane="best" arrivalPos="random">
        <route edges="-153458#0 -153459#0 -152256 153460 -153460 152256 153459#0 153459#1 153458#1 153005#0 153005#1 152235 153338 153641 152330#0 152330#1 152330#2 152330#3 152330#4 152330#5 152166 -153006#3 -153006#2 -153006#1 -153006#0 152899#2 -152870#4 -152832#6 -152832#5 -152832#4 -152832#3 -152832#2 -152832#1 -152832#0 -152987#1 -152987#0 -152969#3 -152969#2 -152969#1 -152969#0 152791 152796#0 152796#1 153549#2 152825#0"/>
    </vehicle>
    <vehicle id="special_1-3_188" type="special" depart="18256" departLane="best" arrivalPos="random">
        <route edges="152898#2 -152299 152857 152137#3 152137#4 152137#5 152137#6 152137#7 152137#0 152138 152968 -152270 -152418 -152958 153476#1 153476#2 153476#3 153476#5 153476#6 153476#7 153476#8 153476#9 153476#10 153476#11 153476#12 153476#13 153476#14 153476#15 153476#16 153476#17 153476#18 153476#19 153476#20 153476#22 153476#23 153476#24 153476#25 153476#26 -152303 -153342 -152302 -153477#1 -153477#0 -152257 -152927"/>
    </vehicle>
    <vehicle id="special_1-1_273" type="special" depart="18292" departLane="best" arrivalPos="random">
        <route edges="-152606#4 -152606#3 -152606#2 -152617 -152610 -152605#2 -152605#1 -152605#0 -152667#10 -152667#9 -152667#8 -152667#7 -152667#6 -152667#5 -152667#4 -152667#3 -152667#2 -152667#1 152702#0 152702#1 -152775#5 -152775#4 -152775#3 -152775#2 -152775#0 152810#0 152810#1 152810#2 152820 152960#1 152960#2 152960#3 152960#4 152960#5 152960#6 152960#7 152960#8 -153273#2 -153273#1 -153273#0"/>
    </vehicle>
    <vehicle id="special_3-1_258" type="special" depart="18312" departLane="best" arrivalPos="random">
        <route edges="-152413#3 -152413#2 -152413#1 -152413#0 152412 152444#1 -153435#3 -153435#2 -153435#1 -153435#0 153451#6 153451#7 153433#1 152734#0 -152736#2 -152736#1 -152736#0 153391#0 153391#1 -153392#0 153327#0 153327#1 153327#2 153327#3 153327#4 153327#5 153327#6 153327#7 153327#8 153327#9 153327#11 153327#12 -153335#7 -153335#6 -153335#5 -153335#4 -153335#3 -153335#2 -153335#1 -153335#0 -153444#0 -153441#3 -153441#2 -153441#1 -153441#0 -153445#1 -153445#0 153003#0 153003#1 153334 153438"/>
    </vehicle>
    <vehicle id="special_1-1_266" type="special" depart="18324" departLane="best" arrivalPos="random">
        <route edges="-153559#2 -153559#1 -153559#0 -152887#1 -152887#0 152898#0 152898#1 152898#2 -152299 152857 152137#3 152137#4 152137#5 152821#0 152826 152818#2 152818#3 152388#0 152388#1 152777 152382 152771 -152769 152946 -152777"/>
    </vehicle>
    <vehicle id="special_1-1_140" type="special" depart="18341" departLane="best" arrivalPos="random">
        <route edges="152810#2 152820 152960#1 152805#0 -152831#1 -152831#0 152816#4 152816#5 -152810#2 -152810#1 -152810#0 152775#0 152775#2 152775#3 152775#4 152775#5 -152702#1 -152702#0 152667#1 152667#2 152667#3 152667#4 152667#5 152667#6 152667#7 152667#8 152667#9 152667#10 152667#11 152605#1 152605#2 152169 152223 152453 152454#1 152454#2 152615#0 152615#1 152615#2 -152319 -152965#1 -152965#0 152941#0 152941#1 152941#2 152941#3 152941#4"/>
    </vehicle>
    <vehicle id="special_2-1_74" type="special" depart="18344" departLane="best" arrivalPos="random">
        <route edges="-152897#2 -152897#1 -152897#0 -152902#7 -152902#6 -152902#5 -152902#4 -152902#3 -152902#2 -152902#1 -152902#0 152402#1 152402#2 152402#3 152899#0 152899#1 152899#2 -152870#4 -152870#3 -152870#2 -152870#1 -152870#0 153552#3 153552#0 152945#0 152945#1 152945#2 152814#11 152759 152230 152785#0 152819 152944#2 152234 152701#0 152701#1 152701#2 152780 -152767#1 -152767#0 -152701#0 152229"/>
    </vehicle>
    <vehicle id="special_1-3_170" type="special" depart="18379" departLane="best" arrivalPos="random">
        <route edges="152783#0 152783#1 -152386#1 152831#1 152831#2 152305 152312#0 152312#1 152312#2 -152309 152318#1 152318#2 -152308 152281 152530 -152330#5 -152330#4 -152330#3 -152330#2 -152330#1 -152330#0 153637 153634#1 153636#1 153002#0 153002#1 -153458#1 -153458#0 -153459#0 -152256 153460 -153460 152256 153459#0 153459#1"/>
    </vehicle>
    <vehicle id="special_1-2_131" type="special" depart="18384" departLane="best" arrivalPos="random">
        <route edges="152648#2 152648#3 152648#4 152648#5 153398#0 153398#1 153398#2 153398#3 153396#4 153011#0 153011#1 152649#1 152649#2 152649#3 152649#4 152649#5 153406#0 153406#1 153406#2 152940 152684 152174#1 -152701#5 -152701#4 -152701#3 -152706#3 -152706#2 -152706#1 -152706#0 -152999 -152997 -153413#16 -153413#15 -153413#14 153415#0 153415#1 153331#0 153331#1 153331#2 153331#4 153331#5 153331#6 153331#7 153331#8 153331#9 153331#10 153331#11 153329#4 153329#5 153412#5 152251 153385#0 153385#1 152250 153383#0 -153386 152176#1 152176#2 152177 153384#0 153384#1 153384#2 152628#1 -153387#2 -153387#1 -153392#1 -153391#1 -153391#0 152736#0 152736#1 152736#2 -152734#0 -153424#0 -153433#0"/>
    </vehicle>
    <vehicle id="special_1-3_164" type="special" depart="18500" departLane="best" arrivalPos="random">
        <route edges="-152451 152874#1 152874#2 152874#3 152874#4 -152883#2 -152883#1 -152883#0 152975#1 -153560 152898#0 152898#1 152898#2 -152299 152857 152137#3 152137#4 152137#5 152137#6 152137#7 -152139 152318#4 152318#1 152318#2 -152308 152281 152530 -152330#5 -152330#4 -152330#3 -152330#2 -152330#1 -152330#0 153637 153634#1 153636#1 153002#0 153002#1 -153458#1 -153458#0"/>
    </vehicle>
    <vehicle id="special_1-1_106" type="special" depart="18503" departLane="best" arrivalPos="random">
        <route edges="152898#2 -152299 152857 152137#3 152137#4 152137#5 152137#6 152137#7 152137#0 152137#1 152137#2 -152857 152299 -152898#2 -152898#1 -152898#0 152974 152887#1 -153558"/>
    </vehicle>
    <vehicle id="special_2-1_291" type="special" depart="18559" departLane="best" arrivalPos="random">
        <route edges="-152400 -152132 152418 152270 152419#0 152419#1 152308 152318#3 152318#4 152309 152312#3 -152305 152960#5 152960#6 152960#7 152960#8 -152825#1 -152825#0"/>
    </vehicle>
    <vehicle id="special_1-2_287" type="special" depart="18564" departLane="best" arrivalPos="random">
        <route edges="-152812#0 -153441#0 -153445#1 -153445#0 -153404#8 -153404#7 -153404#6 -153404#5 -153404#4 -153404#3 -153404#2 -153404#1 -153404#0 -152707#0 152706#2 152706#3 152701#3 152701#4 152701#5 152703 152704 152667#1 152667#2 152667#3 152667#4 152667#5 152667#6 152667#7 152667#8 152667#9 152667#10 152667#11 152605#1 152605#2 152169 152223 152453 152454#1 -152582#4 -152582#3 -152582#2 -152590#2 -152590#1 -152589 -152284 152594 -152941#3 -152941#2"/>
    </vehicle>
    <vehicle id="special_1-3_251" type="special" depart="18606" departLane="best" arrivalPos="random">
        <route edges="-153413#1 -153413#0 152649#0 152649#1 152649#2 152649#3 152649#4 152649#5 153406#0 153406#1 153406#2 152940 152684 152174#1 -152701#5 -152701#4 -152701#3 -152701#2 -152701#1 -152701#0 152229 152943#0 152943#1 -152814#11 -152814#10 -152814#9 -152814#8 -152814#7 -152814#6 -152814#5 -152814#4 -152814#3 -152814#2 -152814#1 -152814#0 152989 -152901#1 -152901#0 152399#3 152399#0 -152168#1 -152168#0 -152166 -152330#5 -152330#4 -152330#3 -152330#2 -152330#1 -152330#0 153637 152405 -153007#6 -153456#6 -153456#5"/>
    </vehicle>
    <vehicle id="special_3-1_214" type="special" depart="18618" departLane="best" arrivalPos="random">
        <route edges="-153457 153452#1 153452#2 153451#1 153451#2 153451#3 153451#4 153451#5 153451#6 153451#7 153433#1 152734#0 -152736#2 -152736#1 -152736#0 153391#0 153391#1 153392#1 153387#1 153387#2 -152628#1 -152628#0 -153384#1 -153384#0 -152177 -152176#2 -152176#1 -152176#0 -153383#0 -152250 -153385#1 -153385#0 -152251 -153412#5 -153329#5 -153329#4 -153331#11 -153331#10 -153331#9 -153331#8 -153331#7 -153331#6 -153331#5 -153331#4 -153331#2 -153331#1 -153331#0 -153415#1 -153415#0 153413#14 153413#15 153413#16 152997 152999 152706#0 152706#1 152706#2 152706#3 152780 152767#2 -152546 -152781"/>
    </vehicle>
    <vehicle id="special_3-1_19" type="special" depart="18622" departLane="best" arrivalPos="random">
        <route edges="152903 153477#1 152302 153342 152303 -153476#26 -153476#25 -153476#24 -153476#23 -153476#22 -153476#20 -153476#19 -153476#18 -153476#17 -153476#16 -153476#15 -153476#14 -153476#13 -153476#12 -153476#11 -153476#10 153008#0 153008#1 153008#2 153008#3 153008#4 153008#5 153008#6 153008#7 152402#2 152402#3 152899#0 152899#1 152899#2 -152870#4 -152870#3 -152870#2 -152870#1 -152870#0 153552#3 153552#0 152945#0 152945#1 152945#2 152814#11 152759 152230 152785#0 152819 152944#2 152234 152701#0 152701#1 152701#2 152701#3 152701#4"/>
    </vehicle>
    <vehicle id="special_1-3_274" type="special" depart="18628" departLane="best" arrivalPos="random">
        <route edges="-152398#3 -152398#2 152646 -152298 -152873#3 -152873#2 -152873#1 -152873#0 152983 152982#3 152982#4 152973 -152895#1 -153476#0 152418 152270 152419#0 152419#1 152281 152530 -152330#5 -152330#4 -152330#3 -152330#2 -152330#1 -152330#0 153637 153634#1 153636#1 153002#0 153002#1 -153458#1 152903"/>
    </vehicle>
    <vehicle id="special_2-1_75" type="special" depart="18642" departLane="best" arrivalPos="random">
        <route edges="-153355#3 152334 153355#4 153325#2 153362#0 153360#0 153360#1 153326#1 153326#2 153326#3 153326#4 153372#1 153480#0 153480#1 153480#2 153480#3 153480#4 153480#5 153480#6 153480#7 152585#1 152350 152582#0 152582#1 152582#2 152582#3 152582#4 152454#2 152454#3 152454#4 -152453 -152223 -152169 -152605#2 -152605#1 -152605#0 -152667#10 -152667#9 -152667#8 -152667#7"/>
    </vehicle>
    <vehicle id="special_1-1_287" type="special" depart="18646" departLane="best" arrivalPos="random">
        <route edges="152832#6 -152870#3 -152870#2 -152870#1 -152870#0 153552#3 153552#0 153552#1 -152782 -152801 -152814#8 -152812#5 -152812#4 -152812#3 -152812#2 -152812#1 -152812#0 153441#1 153446 152830#1 152830#2"/>
    </vehicle>
    <vehicle id="special_1-3_24" type="special" depart="18667" departLane="best" arrivalPos="random">
        <route edges="-152775#3 -152775#2 -152775#0 152810#0 152810#1 152810#2 152820 152960#1 152960#2 152960#3 152960#4 152305 152312#0 152312#1 152312#2 -152309 152318#1 152318#2 -152308 152281 152530 -152330#5 -152330#4 -152330#3 -152330#2 -152330#1 -152330#0 153637 153634#1 153636#1 153002#0 153002#1 -153458#1 -153458#0"/>
    </vehicle>
    <vehicle id="special_1-1_262" type="special" depart="18699" departLane="best" arrivalPos="random">
        <route edges="-152830#2 -152830#1 -152830#0 -153441#1 -153441#0 -153445#1 -153445#0 -153404#8 -153404#7 -153404#6 -153404#5 -153404#4 -153404#3 -153404#2 -153404#1 -153404#0 -152707#0 152706#2 152706#3 152780 152767#2 152767#3 152716 152381 -152672#2 -152672#1 -152650#0 -152677#5 -152677#4 -152677#3 -152677#2 -152677#1 -152677#0 152654#0 152654#1 152654#2 152534#0 152534#2 152534#4 152534#5 152534#6 152534#7 -152165#1 -152457#2 152457#0"/>
    </vehicle>
    <vehicle id="special_2-1_212" type="special" depart="18704" departLane="best" arrivalPos="random">
        <route edges="152623 153387#4 -152628#0 -153384#1 -153384#0 -152177 -152176#2 -152176#1 -152176#0 -153383#0 -152250 -153385#1 -153385#0 -152251 -153412#5 -153329#5 -153329#4 -153331#11 -153331#10 -153331#9 -153331#8 -153331#7 -153331#6 -153331#5 -153331#4 -153331#2 -153331#1 -153331#0 -153415#1 -153415#0 153413#14 153413#15 153413#16 152997 152999 152706#0 152706#1 152706#2 152706#3 -152701#2 -152701#1 -152701#0 152229 152943#0 152793 152785#2 152167 152969#0 152969#1 152969#2 152969#3 -152795#1 152808 152959#3 152959#4 152959#5 152779 152818#0 152818#1 152818#2 152818#3 152389 152468 152296 153640 153639 152874#4 152874#5 152874#0 152874#1 152874#2 153638 152297#0 152297#0-AddedOffRampEdge 152297#1 152967"/>
    </vehicle>
    <vehicle id="special_1-1_0" type="special" depart="18706" departLane="best" arrivalPos="random">
        <route edges="-152937#4 -152937#3 -152937#2 -152937#1 -152937#0 152965#0 152455 152456#0 152456#1"/>
    </vehicle>
    <vehicle id="special_1-3_280" type="special" depart="18716" departLane="best" arrivalPos="random">
        <route edges="152831#1 152831#2 152305 152312#0 152312#1 152312#2 -152309 152318#1 152318#2 -152308 152281 152530 -152330#5 -152330#4 -152330#3 -152330#2 -152330#1 -152330#0 153637 153634#1 153636#1 153002#0 153002#1 -153458#1 152903"/>
    </vehicle>
    <vehicle id="special_2-1_12" type="special" depart="18740" departLane="best" arrivalPos="random">
        <route edges="153023#0 153023#1 153023#2 153023#3 153374#1 153374#2 153374#3 153374#4 153374#5 153374#6 153374#7 153374#8 153374#9 153374#10 153374#11 153374#12 153374#13 153374#14 152933#1 152933#2 152933#3 -153399#1 -153399#0 153413#0 153413#1 153413#3 153413#4 153413#5 153413#6 153413#7 153413#8 153413#9 153413#10 153413#11 153413#12 153413#13 153413#14 153413#15 153413#16 152997 152999 152998 152709#1 152693#0 152693#1 152693#2 -152685#0"/>
    </vehicle>
    <vehicle id="special_1-2_291" type="special" depart="18757" departLane="best" arrivalPos="random">
        <route edges="-153335#1 -153335#0 -153444#0 153440#1 153440#2 153440#3 153440#4 153440#5 153440#6 -152255#1 -152255#0 -153423#4 -153423#3 -153423#2 -153423#1 -153421#4 -153421#3 -153421#2 152369"/>
    </vehicle>
    <vehicle id="special_1-3_244" type="special" depart="18763" departLane="best" arrivalPos="random">
        <route edges="152898#2 -152299 152857 152137#3 152137#4 152137#5 152137#6 152137#7 -152139 152318#4 152318#1 152318#2 -152308 152281 152530 -152330#5 -152330#4 -152330#3 -152330#2 -152330#1 -152330#0 153637 153634#1 153636#1 153002#0 153002#1 -153458#1 -153458#0 -153457"/>
    </vehicle>
    <vehicle id="special_1-1_65" type="special" depart="18766" departLane="best" arrivalPos="random">
        <route edges="152812#1 152812#2 152812#3 152812#4 152812#5 152814#8 152814#9 152814#10 152814#11 152759 152230 152785#0 152819 152944#2 152234 152701#0 152701#1 152701#2 152701#3 152701#4 152701#5 152703 152704 152667#1 152667#2 152667#3 152667#4 152667#5 152667#6 152667#7 152667#8 152667#9 152667#10 152667#11 152605#1 152605#2 152169 152223 152453 152454#1 152454#2 152615#0 -152611#0 152611#0 -152615#0"/>
    </vehicle>
    <vehicle id="special_3-1_143" type="special" depart="18788" departLane="best" arrivalPos="random">
        <route edges="153457 153459#1 153458#1 153005#0 153005#1 152235 153338 153641 152330#0 152330#1 152330#2 152330#3 152330#4 152330#5 152166 -153006#3 -153006#2 -153006#1 -153006#0 152899#2 -152870#4 -152870#3 -152870#2 -152870#1 -152870#0 153552#3 153552#0 152945#0 152945#1 152945#2 -152814#10"/>
    </vehicle>
    <vehicle id="special_3-1_225" type="special" depart="18816" departLane="best" arrivalPos="random">
        <route edges="152413#3 152252 153395 152253 -153436 153436 -152253 -153395 -152252 -152413#3 -152413#2 -152413#1 -152413#0 152412 -152537 152928#4 152411 152531 152328#1 152288 152855 152210 152536 152394 153641 152330#0 152330#1 152330#2 152330#3 152330#4 152330#5 152166 -153006#3 -153006#2 -153006#1 -153006#0 152899#2 -152870#4 -152832#6 -152832#5 -152832#4 152823#0 152823#1"/>
    </vehicle>
    <vehicle id="special_1-2_85" type="special" depart="18825" departLane="best" arrivalPos="random">
        <route edges="152137#5 152137#6 152137#7 -152139 152318#4 152309 152312#3 -152305 -152831#2 -152831#1 -152831#0 152816#4 152816#5 -152810#2 -152810#1 -152810#0 152775#0 -152381 -152716 -152767#3 -152767#2 -152767#1 -152767#0 -152701#0 152229 152943#0 152943#1 -152814#11 -152814#10 -152814#9 -152814#8 -152812#5"/>
    </vehicle>
    <vehicle id="special_2-1_22" type="special" depart="18856" departLane="best" arrivalPos="random">
        <route edges="-153453#1 -153453#0 153453#0 153453#1 153450 -153476#1 -153476#0 152418 152270 152419#0 152419#1 152281 152530 -152330#5 -152330#4 152407 -152407 152330#4 152330#5 152166 -153006#3 -153006#2 -153006#1 -153006#0 -152899#1 -152899#0"/>
    </vehicle>
    <vehicle id="special_3-1_231" type="special" depart="18901" departLane="best" arrivalPos="random">
        <route edges="-153394#2 -153394#1 -153394#0 -152413#2 -152413#1 -152413#0 152412 -152537 152928#4 152411 152531 152328#1 152288 152855 152210 152536 152394 153641 152330#0 152330#1 152330#2 152330#3 152330#4 152330#5 152166 152168#0 152168#1 152399#1 152399#2 152901#0 152901#1 152320 152403 152538#0 152538#1 152137#2 152137#3 152137#4 152137#5 152821#0 152821#1 152821#2 152959#4 -152817#3 -152817#2 -152817#1 -152817#0 -152776 152860 152862 -152889 152885 152884#0 152884#1 152881 152882 152942"/>
    </vehicle>
    <vehicle id="special_1-2_71" type="special" depart="18911" departLane="best" arrivalPos="random">
        <route edges="-152667#10 -152667#9 -152667#8 -152667#7 -152667#6 -152667#5 -152667#4 -152667#3 -152667#2 -152667#1 152702#0 152702#1 -152775#5 -152775#4 -152775#3 -152775#2 -152775#0 152810#0 152810#1 152810#2 152820 152960#1 152960#2 152960#3 152960#4 152305 152312#0 152312#1 152312#2 -152309 152318#1 152318#2 -152308 152281 152530 -152330#5 -152330#4 -152330#3 -152330#2 -152330#1 -152330#0 -152409#3 -153454#1 -153454#0 153454#0 153454#1 152409#3 152330#0"/>
    </vehicle>
    <vehicle id="special_1-2_248" type="special" depart="18935" departLane="best" arrivalPos="random">
        <route edges="152998 152709#1 152709#2 -152706#0 -152999 -152997 -153413#16 -153413#15 -153413#14 153415#0 153415#1 153331#0 153331#1 153331#2 153331#4 152996#0 152996#2"/>
    </vehicle>
    <vehicle id="special_2-1_283" type="special" depart="18937" departLane="best" arrivalPos="random">
        <route edges="153374#5 153374#6 153374#7 153374#8 153374#9 153374#10 153374#11 153374#12 153374#13 153374#14 152933#1 152933#2 153329#0 153329#1 153329#2 153329#3 -153331#11 -153331#10 -153331#9 -153331#8 -153331#7 -153331#6 -153331#5 152996#0 152996#2 152996#3 152996#4 152996#5 152996#6 152996#7 152996#8"/>
    </vehicle>
    <vehicle id="special_1-3_230" type="special" depart="18977" departLane="best" arrivalPos="random">
        <route edges="-152613 -152587#1 -152587#0 152224 152170#0 152170#1 152607 152363#3 152363#0 152363#1 -152669#1 -152669#0 -152226 -152290 -152761 -152291 -152800 -152292 -152794 152293 152385 -152206 152461 152311 152312#2 -152309 152318#1 152318#2 152318#3 152139 152137#0 152138 152968 -152270 -152418 -152958 153476#1 153476#2 153476#3 153476#5 153476#6 153476#7 153476#8 153476#9 153476#10 153476#11 153476#12 153476#13 153476#14 153476#15 153476#16 153476#17 153476#18 153476#19 153476#20 153476#22 153476#23 153476#24 153476#25 153476#26 -152303 -153342 -152302 -153477#1 -152903"/>
    </vehicle>
    <vehicle id="special_2-1_215" type="special" depart="18978" departLane="best" arrivalPos="random">
        <route edges="-152992 -153492 -153357#2 -153354#2 -153354#1 -153354#0 -153359#1 -153359#0 -153323#4 -153323#3 -153323#2 -153323#1 -153323#0 -153363#3 152560 -152581#4 -152581#3 -152581#2 -152581#1 -152581#0 152345#1 -152579#1 -152579#0 -152220 -152587#3 -152587#2 -152587#1 -152587#0 152224 152170#0 152170#1 152607 152363#3 152363#0 152363#1 -152669#1 -152669#0 -152226 -152290 -152761 -152291 -152800 -152292 -152794 152293 152385 -152206 152461 152311 152312#2 -152309 152318#1 152317 -152898#2 -152898#1 -152898#0 153560 152975#2 152975#3 152886#0 152966#0 152966#1 152458#1 152458#2 152398#0 152398#1 152398#2 152398#3 152398#4 -152398#4 -152398#3"/>
    </vehicle>
    <vehicle id="special_1-3_81" type="special" depart="18981" departLane="best" arrivalPos="random">
        <route edges="152836#3 152836#4 152836#5 152836#6 -152814#2 -152814#1 -152814#0 152989 -152901#1 -152901#0 152399#3 152399#0 -152168#1 -152168#0 -152166 -152330#5 -152330#4 -152330#3 -152330#2 -152330#1 -152330#0 153637 153634#1 153636#1 152964 -152536 -152210 -152855 -152288 152325#0 152410"/>
    </vehicle>
    <vehicle id="special_1-1_11" type="special" depart="19008" departLane="best" arrivalPos="random">
        <route edges="152767#0 152767#1 152767#2 152767#3 152716 152381 -152775#0 152810#0 152810#1 152810#2 152820 152960#1 152960#2 152960#3 152960#4 152960#5 152960#6 152960#7 152960#8 152960#10 152959#2 152959#3 152959#4 -152817#3 -152817#2 -152817#1 -152817#0 -152776 152763 152760 152799 152803 -152865 -152947 152888 152876"/>
    </vehicle>
    <vehicle id="special_1-3_209" type="special" depart="19023" departLane="best" arrivalPos="random">
        <route edges="-152398#1 -152398#0 152458#3 152458#0 -152966#1 -152966#0 -152886#0 152975#4 152975#1 -153560 152898#0 152898#1 152898#2 -152299 152857 152137#3 152137#4 152137#5 152137#6 152137#7 -152139 152318#4 152318#1 152318#2 -152308 152281 152530 -152330#5 -152330#4 -152330#3 -152330#2 -152330#1 -152330#0 153637 152405 -153007#6 -153456#6 -153456#5 -153456#4 -153456#3 -153456#2 -153456#1 -153456#0 -153451#4 -153451#3 -153451#2 -153451#1 -153451#0 -153452#1 -153452#0"/>
    </vehicle>
    <vehicle id="special_2-1_287" type="special" depart="19070" departLane="best" arrivalPos="random">
        <route edges="-152557#1 -152557#0 153555 -152465#0 152970#1 152577#2 152577#3 152577#4 152145 152173 153375 152165#1 152535#0 152535#1 152535#2"/>
    </vehicle>
    <vehicle id="special_2-1_89" type="special" depart="19074" departLane="best" arrivalPos="random">
        <route edges="153423#1 153423#2 153423#3 153423#4 152255#0 152255#1 -153440#6 -153440#5 -153440#4 -153440#3 -153440#2 -153440#1 -153441#3 -153441#2 -153441#1 153443 152812#1 152812#2 152812#3 152812#4 152812#5 -152814#7 -152814#6 -152814#5 -152814#4"/>
    </vehicle>
    <vehicle id="special_3-1_234" type="special" depart="19125" departLane="best" arrivalPos="random">
        <route edges="-152288 152325#0 152410 152531 152328#1 152288 152855 152210 152536 152394 153641 152330#0 152330#1 152330#2 152330#3 152330#4 152330#5 152166 152168#0 152168#1 152399#1 152399#2 152901#0 152901#1 152988"/>
    </vehicle>
    <vehicle id="special_1-1_55" type="special" depart="19131" departLane="best" arrivalPos="random">
        <route edges="-152677#4 -152677#3 -152677#2 -152677#1 -152677#0 152670#4 152282 -152290 -152761 -152291 -152800 -152292 -152794 152293 152385 -152206 152461 152311 152312#2 152312#3 -152305 -152831#2 152805#1 152805#2 -152766#1 -152766#0"/>
    </vehicle>
    <vehicle id="special_3-1_227" type="special" depart="19165" departLane="best" arrivalPos="random">
        <route edges="-153458#0 -153459#0 -152256 153460 -153460 152256 153459#0 153459#1 153458#1 153005#0 153005#1 152235 153338 153641 152330#0 152330#1 152330#2 152330#3 152330#4 152330#5 152166 152168#0 152168#1 152399#1 152399#2 152901#0 152901#1 152320 152403 152538#0 152538#1 152137#2 152137#3 152137#4 152137#5 152821#0 152821#1 152821#2 152959#4 152959#5 152779 152818#0 152818#1"/>