<?xml version="1.0" encoding="UTF-8"?>

<!-- generated on Thu May 24 10:07:23 2018 by Eclipse SUMO duarouter Version 629ca040dd
<configuration xmlns:xsi="http://www.w3.org/2001/XMLSchema-instance" xsi:noNamespaceSchemaLocation="http://sumo.dlr.de/xsd/duarouterConfiguration.xsd">

    <input>
        <net-file value="../scenario/in/most.net.xml"/>
        <additional-files value="../scenario/in/add/most.busstops.add.xml,../scenario/in/add/most.trainstops.add.xml,../scenario/in/add/most.parkings.add.xml,../scenario/in/add/basic.vType.xml"/>
        <route-files value="out/most.bicycle.trips.xml"/>
    </input>

    <output>
        <output-file value="../scenario/in/route/most.bicycle.rou.xml"/>
        <vtype-output value="/dev/null"/>
        <alternatives-output value="../scenario/in/route/most.bicycle.rou.alt.xml"/>
    </output>

    <processing>
        <ignore-errors value="true"/>
        <max-alternatives value="5"/>
        <remove-loops value="false"/>
        <repair value="false"/>
        <repair.from value="false"/>
        <repair.to value="false"/>
        <routing-threads value="4"/>
        <routing-algorithm value="dijkstra"/>
    </processing>

    <time>
        <begin value="0"/>
        <end value="84600"/>
    </time>

</configuration>
-->

<routes xmlns:xsi="http://www.w3.org/2001/XMLSchema-instance" xsi:noNamespaceSchemaLocation="http://sumo.dlr.de/xsd/routes_file.xsd">
    <vehicle id="bicycle_1_685" type="bicycle" depart="18108.00" departLane="best">
        <route edges="-521#1 -521#0 -106 499#0 499#1 499#2 495#0 -487 -491#0 -101 -499#3 -499#2 -499#1 -499#0 106 521#0 521#1 257#3 257#0 579#0 579#1 579#2 579#3 579#4 579#5 579#6 -583#1 -583#0 593#5 564#0 588#1 588#2 691#2 -580 -632 -683#3 -683#2 -683#1 -683#0 -617#0 111 862#0 862#1 675 112 701#0"/>
    </vehicle>
    <vehicle id="bicycle_1_182" type="bicycle" depart="18121.00" departLane="best">
        <route edges="-860#3 -860#2 -860#1 -860#0 855#0 855#1 855#2 855#3 855#4 520#7 520#8 520#9 416#1 -562#6 -562#5 -562#4 -562#3 -562#2 -562#1 -562#0 561#1 561#2 1333#0 1333#1 1333#2 1333#3 1334#0 1334#1 1334#2 595 630#2 630#3 -617#5 -617#4 -617#3 -617#2 -617#1 -617#0 111 862#0 709 701#2"/>
    </vehicle>
    <vehicle id="bicycle_1_427" type="bicycle" depart="18385.00" departLane="best">
        <route edges="701#0 735 863#2 116 617#0 617#1 617#2 617#3 617#4 617#5 619 620 582#1 582#2 582#3 582#4 582#5 582#6 582#7 582#8 582#9 582#10 582#11 519#1 519#2 519#3 105 350 351#1 351#2 351#3 520#0 -524#1 -524#0"/>
    </vehicle>
    <vehicle id="bicycle_2_154" type="bicycle" depart="18649.00" departLane="best">
        <route edges="1379#4 1379#5 1379#6 1379#7 1361#1 650#0 -652#2 -652#1 -652#0 1319#0 1319#1 1494#0 1494#1 1494#2 1320 1315#1 1315#2 -542#1 -542#0 -1312#5 -1312#4 -1312#3 -1312#2 -1312#1 -1312#0 137 1314 1423 200 944#0 944#1 944#2 944#3 1302#1 1302#2 1302#3 1302#4 1302#5 1302#6 1302#7 1302#8 1302#9 1302#10 1302#11 1302#12 1302#13 1302#14 850#1 850#2 850#3 -1327#1 -1327#0 563#0 563#1 563#2 563#3 563#4 563#5 1334#0 1334#1 1334#2 595 630#2 630#3 619 620 572#0 572#1 572#2 -593#5 -593#4 -593#3 -593#2 -593#1 -593#0 586 569#1 569#2 439#0 439#2 439#4 439#5 439#6 439#7 439#8"/>
    </vehicle>
    <vehicle id="bicycle_1_959" type="bicycle" depart="18654.00" departLane="best">
        <route edges="-110 858#0 858#1 858#2 455 -683#2 -683#1 -683#0 -617#0 111 862#0 862#1 -730#11 -864#2 -864#1 -864#0 1484#1 1484#2 787#0 787#1 787#2 787#3 787#4 787#5 -193 -816#2 -816#1 -816#0 298#0 -929#7 -929#6 -929#5 -929#4 -929#3 -929#2 -929#1 -929#0 -1404#9 -1404#8 -1404#7 -1404#6 -1404#5 -1404#3 -1404#2 -1404#1 812#1 812#2 -208 -893 902#0 902#1 -903 790#0 790#1 790#2 790#3 190 -560 294#2 1212#0 1148#0"/>
    </vehicle>
    <vehicle id="bicycle_1_523" type="bicycle" depart="18778.00" departLane="best">
        <route edges="-694 1480#2 1480#3 741#0 741#1 879#11 878#1 878#2 878#3 -733#3 -733#2 -733#1 -733#0 -692 679 -688 -689 690 715 719 -782 -866 784 1217#0 1217#1 1217#2"/>
    </vehicle>
    <vehicle id="bicycle_1_57" type="bicycle" depart="18824.00" departLane="best">
        <route edges="360#2 360#3 360#4 360#5 244#0 244#2 244#3 -98 -1303#2 -1303#1 -1303#0 490#1 -99 1306#0 1306#1 1306#2 1304 103 497#1 243 494#0 494#1 494#2 494#3 494#4 351#2 351#3 520#0 -524#1 531 520#2 520#3 520#4 520#5 520#6 520#7 520#8 520#9 416#1"/>
    </vehicle>
    <vehicle id="bicycle_1_429" type="bicycle" depart="18825.00" departLane="best">
        <route edges="-888#0 863#0 863#1 863#2 116 617#0 617#1 617#2 -622#3 -622#2 -622#1 -622#0 -920 -1486#3 -1486#2 -1486#1 -1486#0 1332#1 1332#2 1332#3 1332#4 1332#5 1332#6 1332#7 1332#8 1373#0 1373#1 1369#0 1371"/>
    </vehicle>
    <vehicle id="bicycle_1_76" type="bicycle" depart="18874.00" departLane="best">
        <route edges="-712#0 707#1 888#1 888#2 888#3 888#4 888#5 907#0 907#1 748#0 -708#1 -708#0 -739#3"/>
    </vehicle>
    <vehicle id="bicycle_1_894" type="bicycle" depart="18985.00" departLane="best">
        <route edges="-888#0 863#0 863#1 863#2 116 111 862#0 862#1 -730#11 -864#2 -864#1 -864#0 1484#1 1484#2 787#0 787#1 787#2 787#3 787#4 787#5 -193 -816#2 -816#1 -816#0 298#0 -929#7 -929#6 -929#5 -929#4 -929#3 -929#2 -929#1 -929#0 -1404#9 -1404#8 -1404#7 -1404#6 -1404#5 -1404#3 -1404#2 -1404#1 812#1 812#2 -208 -893 902#0 902#1 902#3 -817#1 -817#0 895#3 803#0 885#0 885#1 358#2 358#3 -885#1 -885#0"/>
    </vehicle>
    <vehicle id="bicycle_1_389" type="bicycle" depart="19082.00" departLane="best">
        <route edges="360#3 360#4 360#5 360#0 360#1 440#0 440#1 440#2 440#3 440#4 440#6 440#8 569#4 585#3 1481 593#0 593#1 593#2 593#3 593#4 593#5 564#0 588#1 588#2 691#2 -580 -632 -683#3 -683#2 -683#1 -683#0 -617#0 111 862#0 862#1 -730#11 -730#10 -730#9 -730#8 -730#7 -730#6 -730#5 -730#4 -730#3 -730#2 -730#1 -813"/>
    </vehicle>
    <vehicle id="bicycle_2_100" type="bicycle" depart="19102.00" departLane="best">
        <route edges="559 672#1 672#2 -310#1 -310#0 309 341#1 -1363#3 -1363#2 -1363#1 -1363#0 1379#6 1379#7 1361#1 650#0 -652#2 -652#1 -652#0 1319#0 1319#1 1494#0 1494#1 1494#2 1320 1315#1 1315#2 -542#1 -542#0 -1312#5 -1312#4 -1312#3 -1312#2 -1312#1 -1312#0 137 1314 1423 200 944#0 944#1 944#2 944#3 1302#1 1302#2 1302#3 1302#4 1302#5 1302#6 1302#7 1302#8 1302#9 1302#10 1302#11 1302#12 1302#13 1302#14 850#1 850#2 850#3 -1327#1 -1327#0 563#0 563#1 563#2 563#3 563#4 563#5 1334#0 1334#1 1334#2 595 630#2 630#3 -617#5 -617#4 -617#3 -617#2 -617#1 -617#0 111 862#0 862#1 -730#11 -864#2 -864#1 -864#0 1484#1 1484#2 787#0 787#1 787#2 787#3 787#4 787#5 -193 -816#2 -816#1 -816#0 298#0 -929#7 -929#6 -929#5 -929#4 -929#3 -929#2 -929#1 -929#0 -1404#9 -1404#8 -1404#7 -1404#6 -1404#5 -1404#3 -1404#2 -1404#1 812#1 812#2 -208 -893 902#0 902#1 902#3 -817#1 -817#0 895#3 803#0 885#0 885#1 358#2"/>
    </vehicle>
    <vehicle id="bicycle_1_612" type="bicycle" depart="19148.00" departLane="best">
        <route edges="1229#1 1227 730#1 730#2 730#3 730#4 730#5 730#6 730#7 730#8 717 698 1484#2 1484#3 743#0 743#1 888#1 1480#0 1480#1 1480#2 1480#3 741#0 741#1 879#11 878#1 878#2 878#3 -733#3 -733#2 -733#1 -733#0 -692 679 -688 -689 690 715 719 -782 -866 784 1217#0 1217#1 1217#2 -408 -783 806"/>
    </vehicle>
    <vehicle id="bicycle_2_112" type="bicycle" depart="19148.00" departLane="best">
        <route edges="-306#0 -825#7 -825#6 -825#5 -825#3 -825#2 -825#1 -825#0 1361#1 650#0 -652#2 -652#1 -652#0 1319#0 1319#1 1494#0 1494#1 1494#2 1320 1315#1 1315#2 -542#1 -542#0 -1312#5 -1312#4 -1312#3 -1312#2 -1312#1 -1312#0 137 1314 1423 200 944#0 944#1 944#2 944#3 1302#1 1302#2 1302#3 1302#4 1302#5 1302#6 1302#7 1302#8 1302#9 1302#10 1302#11 1302#12 1302#13 1302#14 850#1 850#2 850#3 -1327#1 -1327#0 563#0 563#1 563#2 563#3 563#4 563#5 1334#0 1334#1 1334#2 595 630#2 630#3 -617#5 -617#4 -617#3 -617#2 -617#1 -617#0 111 862#0 709 701#2 888#0 888#1 888#2 888#3 888#4 888#5 907#0 907#1 748#0 748#1 748#2 748#3 748#4 748#5 748#6 -787#3 -787#2 -787#1 -787#0"/>
    </vehicle>
    <vehicle id="bicycle_1_9" type="bicycle" depart="19222.00" departLane="best">
        <route edges="-721#2 699#0 699#1 -282#1 -747#0 732#4 732#5 857#0 857#1 -726#2 -726#1 -726#0 691#0 691#2 691#3 691#4 691#5 -618#1 -618#0 582#1 582#2 582#3 630#1 594 447 561#0 562#0 562#1 562#2 562#3 562#4 562#5 1326#0 1326#1 1326#2"/>
    </vehicle>
    <vehicle id="bicycle_2_166" type="bicycle" depart="19278.00" departLane="best">
        <route edges="-105 -519#3 -519#2 -519#1 1547 257#0 257#1 -584#1 585#0 585#1 585#2 585#3"/>
    </vehicle>
    <vehicle id="bicycle_1_291" type="bicycle" depart="19283.00" departLane="best">
        <route edges="1577 1576 791#4 -800#2 -800#1 -800#0 895#1 895#2 817#0 817#1 902#4 893 208 -812#2 -812#1 -1404#0 443#0 443#1 15#2 15#3 15#4 15#5 737#0 737#2 878#3 878#4 695 734#0 734#1 734#2 734#3 734#4 732#0 732#1 732#2 732#3 747#0 282#1 282#2 -700#1 -700#0 -682#1 -682#0 879#7 879#8 -741#1 -741#0 -1480#3 -1480#2 -1480#1 -1480#0 -888#1 -888#0 863#0 863#1 863#2 116 111 369#0"/>
    </vehicle>
    <vehicle id="bicycle_1_757" type="bicycle" depart="19362.00" departLane="best">
        <route edges="1324#4 932#0 932#1 563#1 563#2 563#3 563#4 563#5 1334#0 1334#1 1334#2 595 630#2 630#3 -617#5 -617#4 -617#3 -617#2 -617#1 -617#0 111 369#0 -1367#2 -1367#1 -1367#0 890#5 729 730#9"/>
    </vehicle>
    <vehicle id="bicycle_1_492" type="bicycle" depart="19469.00" departLane="best">
        <route edges="775 689 688 -679 692 733#0 733#1 733#2 733#3 878#4 695 734#0 734#1 734#2 734#3 734#4 732#0 732#1 732#2 732#3 747#0 282#1 282#2 -700#1 -700#0 -682#1 -682#0 879#7 879#8 -741#1 -741#0 -1480#3 -1480#2 -1480#1 -1480#0 -888#1 -743#1 -743#0 1484#1 1484#2 787#0 787#1 787#2 787#3 787#4 787#5 -193 -816#2 -816#1 -816#0 298#0 -929#7 -929#6 -929#5 -929#4 -929#3 -929#2 -929#1 -929#0 -1404#9 -1404#8 -1404#7 -1404#6 -1404#5 -1404#3 -1404#2 -1404#1 -1404#0"/>
    </vehicle>
    <vehicle id="bicycle_2_161" type="bicycle" depart="19517.00" departLane="best">
        <route edges="-819#7 -819#6 -819#5 -819#4 -819#3 -819#2 -819#1 -819#0 298#2 816#0 816#1 816#2 193 -787#5 -787#4 -787#3 -787#2 -787#1 -787#0 1484#3 864#0 864#1 864#2 730#11 675 112 701#0 735 863#2 116 617#0 683#0 683#1 683#2 683#3 632 580 -691#2 -588#2 -588#1 564#1 686"/>
    </vehicle>
    <vehicle id="bicycle_1_426" type="bicycle" depart="19617.00" departLane="best">
        <route edges="585#0 585#1 585#2 585#3 1481 593#0 593#1 593#2 593#3 593#4 593#5 564#0 588#1 588#2 691#2 -580 -632 -683#3 -683#2 -683#1 -683#0 -617#0 111 862#0 862#1 -730#11 -864#2 -864#1 -864#0 743#0 743#1 -888#0"/>
    </vehicle>
    <vehicle id="bicycle_1_98" type="bicycle" depart="19639.00" departLane="best">
        <route edges="730#3 730#4 730#5 730#6 730#7 730#8 717 698 1484#2 1484#3 743#0 743#1 -888#0 863#0"/>
    </vehicle>
    <vehicle id="bicycle_1_260" type="bicycle" depart="19719.00" departLane="best">
        <route edges="287 752#2 752#3 752#4 752#5 752#6 730#3 730#4 730#5 730#6 730#7 730#8 717 698 1484#2 1484#3 743#0 743#1 888#1 1480#0 1480#1 1480#2 -712#1"/>
    </vehicle>
    <vehicle id="bicycle_1_52" type="bicycle" depart="19738.00" departLane="best">
        <route edges="857#2 857#3 857#4 857#0 857#1 -726#2 -726#1 -720 -110 858#0 858#1 858#2 455 -683#2 -696 -622#3 -622#2 -622#1 -622#0 -920 -1486#3 -1488 918"/>
    </vehicle>
    <vehicle id="bicycle_1_848" type="bicycle" depart="19744.00" departLane="best">
        <route edges="294#2 294#3 774 -294#4 -294#3 -294#2 -294#1 -294#0 358#3 -885#1 -885#0 -803#0 895#4"/>
    </vehicle>
    <vehicle id="bicycle_1_108" type="bicycle" depart="19923.00" departLane="best">
        <route edges="524#0 524#1 -520#0 351#4 -350 -105 -519#3 -519#2 -519#1 -519#0 -582#10 -582#9 -582#8 -582#7 -582#6 -582#5 -582#4 -582#3 -582#2 -582#1 618#0 618#1 -691#5 -691#4 -691#3 -691#2 -691#0 726#0 726#1 726#2 857#2 857#3 736 879#1 879#2 879#3 879#4 879#5 879#6 879#7 879#8 879#11 878#1 878#2 -737#2 -737#0 15#6 15#7 15#0 15#1 15#2 15#3 15#4 15#5 737#0 737#2"/>
    </vehicle>
    <vehicle id="bicycle_1_902" type="bicycle" depart="20087.00" departLane="best">
        <route edges="579#6 -583#1 -583#0 593#5 564#0 588#1 588#2 691#2 -580 -632 -683#3 -683#2 -683#1 -683#0 -617#0 111 862#0 862#1 -730#11 -864#2 -864#1 -864#0 1484#1 1484#2 787#0 787#1 787#2 787#3 787#4 787#5 -193 -816#2 -816#1 -816#0 298#0 -929#7 -929#6 -929#5 -929#4 -929#3 -929#2 -929#1 -929#0 -1404#9 -1404#8 -1404#7 -1404#6 -1404#5 -1404#3 -1404#2 -1404#1 812#1 812#2 -208 -893 902#0 902#1 902#3 -817#1 -817#0 895#3 895#4 800#0 800#1 800#2 791#5 1169#0"/>
    </vehicle>
    <vehicle id="bicycle_1_296" type="bicycle" depart="20118.00" departLane="best">
        <route edges="1480#3 741#0 741#1 -1194#2 -1194#1 -13#1 -13#0 -684 -12 1194#0 1194#1 1194#2 -741#1 -741#0 -1480#3 -1480#2 -1480#1 -1480#0 -888#1 -888#0 863#0 863#1 863#2"/>
    </vehicle>
    <vehicle id="bicycle_1_169" type="bicycle" depart="20121.00" departLane="best">
        <route edges="-708#0 -739#3 -739#2 -739#1 -739#0 748#4 748#5 748#6 -787#3 -787#2 -787#1 -787#0 1484#3 1484#1 -698 -717 -730#8 -728#5 -728#4 -728#3 -728#2 -728#1 -728#0 -1369#0 -1373#1 -1373#0 924#1 1255 1365 728#5 730#8"/>
    </vehicle>
    <vehicle id="bicycle_1_832" type="bicycle" depart="20159.00" departLane="best">
        <route edges="111 862#0 862#1 -730#11 -864#2 -864#1 -864#0 743#0 743#1 -888#0"/>
    </vehicle>
    <vehicle id="bicycle_1_642" type="bicycle" depart="20229.00" departLane="best">
        <route edges="1189 853 722 -719 -715 -690 689 688 -679 692 733#0 733#1 733#2 733#3 878#4 695 734#0 734#1 734#2 734#3 734#4 732#0 732#1 732#2 732#3 732#4 732#5 857#0 857#1 -726#2 -726#1 -726#0 691#0 691#2 691#3 691#4 691#5 -618#1 -618#0 582#1 582#2 582#3 582#4 582#5 582#6 582#7 582#8 582#9 582#10 582#11 519#1 519#2 519#3 105 350 351#1 351#2 529#0 529#1 529#2 -212 -884#1 -884#0 860#0 860#1 860#2 860#3 860#4 104 -506 176 501"/>
    </vehicle>
    <vehicle id="bicycle_1_176" type="bicycle" depart="20314.00" departLane="best">
        <route edges="791#5 791#0 791#1 791#2 791#3 791#4 -800#2 -800#1 -800#0 895#1 895#2 817#0 817#1 902#4 893 208 -812#2 -812#1 -1404#0 443#0 443#1 15#2 15#3 15#4 15#5 737#0 737#2 878#3 878#4 695 734#0 734#1 734#2 734#3 734#4 732#0 732#1 732#2 732#3 747#0 282#1 282#2 -700#1 -700#0 -682#1 -682#0 879#7 879#8 -741#1 -741#0 -1480#3 -1480#2"/>
    </vehicle>
    <vehicle id="bicycle_1_212" type="bicycle" depart="20345.00" departLane="best">
        <route edges="-733#2 -733#1 -733#0 -692 679 -688 -689 690 -676 -679 692 733#0 733#1 733#2 733#3 878#4 695 734#0 734#1 734#2 734#3 734#4 732#0 732#1 732#2 732#3 747#0 282#1 282#2 -700#1 -700#0 -682#1 -682#0 879#7 879#8 -741#1 -741#0 -1480#3 -1480#2 -1480#1 -1480#0 -888#1 -888#0 863#0 863#1 863#2 116 111 862#0 862#1 675"/>
    </vehicle>
    <vehicle id="bicycle_1_80" type="bicycle" depart="20434.00" departLane="best">
        <route edges="726#1 726#2 857#2 857#3 736 879#1 879#2 879#3 879#4 879#5 879#6 879#7 879#8 -741#1 -741#0 -1480#3 -1480#2 -1480#1 -1480#0 -888#1 -743#1 -743#0 1484#1 1484#2 787#0 787#1 787#2 787#3 787#4 787#5 -193 -816#2 -816#1 -816#0 298#0 -929#7 -929#6 -929#5 -929#4 -929#3 -929#2 -929#1 -929#0 -1404#9 -1404#8 -1404#7 -1404#6 -1404#5 -1404#3 -1404#2 -1404#1 812#1 812#2 -208 -893 902#0 902#1 902#3 -817#1 -817#0 895#3 895#4 800#0 800#1 800#2 791#5 791#0 791#1"/>
    </vehicle>
    <vehicle id="bicycle_2_66" type="bicycle" depart="20493.00" departLane="best">
        <route edges="489#4 23 -1303#0 238#0 238#1 -491#1 -491#0 -101 -499#3 -499#2 -499#1 -499#0 106 521#0 521#1 257#3 257#0 579#0 579#1 579#2 579#3 579#4 579#5 579#6 -583#1 -583#0 593#5 564#0 588#1 588#2 691#2 -580 -632 -683#3 -683#2 -683#1 -683#0 -617#0 111 862#0 709 701#2 888#0 888#1 1480#0 1480#1"/>
    </vehicle>
    <vehicle id="bicycle_1_284" type="bicycle" depart="20510.00" departLane="best">
        <route edges="366#0 364 -363 879#3 879#4 879#5 879#6 879#7 879#8 879#11 878#1 878#2 878#3 -733#3 -733#2 -733#1 -733#0 -692 679 -688 -689 690 715 719 -722 -704 -785"/>
    </vehicle>
    <vehicle id="bicycle_1_734" type="bicycle" depart="20582.00" departLane="best">
        <route edges="-587 573#1 440#8 569#4 585#3 1481 593#0 593#1 593#2 593#3 593#4 583#0 583#1 583#2 582#4 582#5 582#6 582#7 582#8 582#9 582#10 582#11 519#1 519#2 524#0 524#1 -520#0"/>
    </vehicle>
    <vehicle id="bicycle_1_527" type="bicycle" depart="20590.00" departLane="best">
        <route edges="494#4 351#2 351#3 351#4 -350 -105 -519#3 -519#2 -519#1 -519#0 -582#10 -582#9 -582#8 -582#7 -582#6 -582#5 -582#4 630#1 630#2 630#3 -617#5 -617#4 -617#3 -617#2 -617#1 -617#0 111 862#0 862#1 -730#11 -864#2 -864#1 -864#0 1484#1 1484#2 787#0 787#1 787#2 787#3 787#4 787#5 -193 -816#2 -816#1 -816#0 298#0 -929#7 -929#6 -929#5 -929#4 -929#3 -929#2 -929#1 -929#0 -1404#9 -1404#8 -1404#7 -1404#6 -1404#5 -1404#3 -1404#2 -1404#1 812#1 812#2 -208 -893 902#0 902#1 -903 790#0 790#1 790#2 790#3 190 -560 294#2 1212#0 1212#1 1216#0 1216#1"/>
    </vehicle>
    <vehicle id="bicycle_1_549" type="bicycle" depart="20610.00" departLane="best">
        <route edges="701#0 701#1 701#2 888#0 888#1 1480#0 1480#1 1480#2 1480#3 741#0 741#1 879#11 878#1 878#2 878#3 878#4 695 734#0 734#1"/>
    </vehicle>
    <vehicle id="bicycle_1_120" type="bicycle" depart="20703.00" departLane="best">
        <route edges="257#3 257#0 579#0 579#1 579#2 579#3 579#4 579#5 579#6 -583#1 -583#0 593#5 564#0 588#1 588#2 691#2 -580 -632 -683#3 -683#2 -683#1 -683#0 -617#0 111 862#0 709 701#2 888#0"/>
    </vehicle>
    <vehicle id="bicycle_1_992" type="bicycle" depart="20722.00" departLane="best">
        <route edges="-581 -583#0 593#5 564#0 588#1 588#2 691#2 -580 -632 -683#3 -683#2 -683#1 -683#0 -617#0 111 862#0 862#1 -730#11 -864#2 -864#1 -864#0 1484#1 1484#2 787#0 787#1 787#2 787#3 787#4 787#5 -193 -816#2 -816#1 -816#0 298#0 -929#7 -929#6 -929#5 -929#4 -929#3 -929#2 -929#1 -929#0 -1404#9 -1404#8 -1404#7 -1404#6 -1404#5 -1404#3 -1404#2 -1404#1 812#1 812#2 -208 -893 902#0 902#1 -903 790#0 790#1 790#2 790#3 190 -560 294#2 1212#0 1212#1 1212#2 1145#1 1206"/>
    </vehicle>
    <vehicle id="bicycle_2_135" type="bicycle" depart="20730.00" departLane="best">
        <route edges="-1404#3 -1404#2 -1404#1 -1404#0 443#0 443#1 15#2 15#3 15#4 15#5 737#0 737#2 878#3 878#4 695 734#0 734#1 734#2 734#3 734#4 732#0 732#1 732#2 732#3 732#4 732#5 857#0 857#1 -726#2 -726#1 -726#0 691#0 691#2 691#3 691#4 691#5 -618#1 -618#0 582#1 582#2 582#3 582#4 582#5 582#6 582#7 582#8 582#9 582#10 582#11 519#1 519#2 519#3 105"/>
    </vehicle>
    <vehicle id="bicycle_1_12" type="bicycle" depart="20751.00" departLane="best">
        <route edges="579#6 -583#1 -583#0 593#5 564#0 588#1 588#2 691#2 -580 -632 -683#3 -683#2 -683#1 -683#0 -617#0 111 862#0 862#1 -730#11 -730#10 -730#9 -730#8 -728#5 -728#4 -728#3 -728#2 -728#1 -728#0"/>
    </vehicle>
    <vehicle id="bicycle_1_484" type="bicycle" depart="20838.00" departLane="best">
        <route edges="248#0 248#1 -567#0 -582#10 -582#9 -582#8 -582#7 -582#6 -582#5 -582#4 -582#3 -582#2 -582#1 618#0 618#1 -691#5 -691#4 -691#3 -691#2 -691#0 726#0 726#1 726#2 857#2 857#3 736 879#1 879#2 879#3 879#4 879#5 879#6 879#7 879#8 879#11 878#1 878#2 878#3 -733#3 -733#2 -733#1 -733#0 -692 777 779"/>
    </vehicle>
    <vehicle id="bicycle_1_319" type="bicycle" depart="20859.00" departLane="best">
        <route edges="1371 728#1 728#2 728#3 728#4 728#5 730#8 730#9 730#10 730#11 675 112 701#0 735 863#2 116 617#0 683#0 683#1 683#2 -455 -858#2 -858#1 -858#0 110 720 726#1 726#2 857#2 857#3 857#4 857#0 703#0 703#1 317 -1479#0 -852 -703#0"/>
    </vehicle>
    <vehicle id="bicycle_1_123" type="bicycle" depart="20866.00" departLane="best">
        <route edges="701#0 701#1 701#2 888#0 888#1 1480#0 1480#1 1480#2 1480#3 741#0 741#1 879#11 878#1 878#2 -737#2 -737#0 15#6 15#7 15#0 15#1 15#2 15#3 15#4 15#5"/>
    </vehicle>
    <vehicle id="bicycle_1_905" type="bicycle" depart="20903.00" departLane="best">
        <route edges="-741#1 -741#0 -1480#3 -1480#2 -1480#1 -1480#0 -888#1 -888#0 863#0 863#1 863#2 116 617#0 683#0 683#1 683#2 683#3 632 580 -691#2 -588#2 -588#1 -564#0 -593#5 -593#4 -593#3 -593#2 -593#1 -593#0 586 569#1 569#2 439#0 439#2 439#4 439#5 439#6"/>
    </vehicle>
    <vehicle id="bicycle_1_488" type="bicycle" depart="21029.00" departLane="best">
        <route edges="-728#1 -728#0 -1369#0 -1373#1 -1373#0 -1332#8 -1332#7 -1332#6 -1332#5 -1332#4 -1332#3 -1332#2 -1332#1 1486#0 1486#1 1486#2 1486#3 920 622#0 622#1 622#2 622#3 617#3 617#4 617#5 619 620 572#0 572#1 572#2 -593#5 -593#4 -593#3 -593#2 -593#1 -593#0 586 569#1 569#2 439#0 439#2 439#4 439#5 439#6 439#7 439#8 -530"/>
    </vehicle>
    <vehicle id="bicycle_1_121" type="bicycle" depart="21156.00" departLane="best">
        <route edges="855#1 855#2 855#3 855#4 520#7 520#8 520#9 416#1 -562#6 -562#5 -562#4 -562#3 -562#2 -562#1 -562#0 561#1 561#2 1333#0 1333#1 1333#2 1333#3 1334#0 1334#1 1334#2 595 630#2 630#3 -617#5 -617#4 -617#3 -617#2 -617#1 -617#0 111 862#0 862#1 -730#11 -730#10 723"/>
    </vehicle>
    <vehicle id="bicycle_1_375" type="bicycle" depart="21266.00" departLane="best">
        <route edges="-730#11 -864#2 -864#1 -864#0 743#0 743#1 888#1 1480#0 1480#1 1480#2"/>
    </vehicle>
    <vehicle id="bicycle_1_351" type="bicycle" depart="21299.00" departLane="best">
        <route edges="-888#0 863#0 863#1 863#2 116 111 862#0 862#1 675 112 701#0"/>
    </vehicle>
    <vehicle id="bicycle_1_201" type="bicycle" depart="21318.00" departLane="best">
        <route edges="1170#1 1170#2 574 589 568 582#9 582#10 582#11 519#1 519#2 519#3 105 350 351#1 351#2 529#0 529#1 529#2 -212 -884#1 -884#0 860#0 860#1 860#2 860#3 860#4 104 -506"/>
    </vehicle>
    <vehicle id="bicycle_1_610" type="bicycle" depart="21344.00" departLane="best">
        <route edges="316#0 -856#2 -856#1 -856#0 816#0 816#1 816#2 193 -787#5 -787#4 -787#3 -787#2 -787#1 -787#0 1484#3 864#0 864#1 864#2 730#11 675 112 701#0 735 863#2 116 617#0 683#0 683#1 683#2 683#3 632 580 -691#2 -588#2 -588#1 -564#0 -593#5 -593#4 -593#3 -593#2 -593#1 -593#0 586 569#1 569#2 439#0 439#2 439#4 439#5 439#6 439#7 439#8 439#9 360#3 360#4 360#5 360#0"/>
    </vehicle>
    <vehicle id="bicycle_1_451" type="bicycle" depart="21357.00" departLane="best">
        <route edges="248#0 248#1 -567#0 -582#10 -582#9 -582#8 -582#7 -582#6 -582#5 -582#4 630#1 630#2 630#3 -617#5 -617#4 -617#3 -617#2 -617#1 -617#0 111 862#0 862#1 -730#11 -730#10 -730#9 -730#8 -730#7 -730#6 -730#5"/>
    </vehicle>
    <vehicle id="bicycle_1_344" type="bicycle" depart="21374.00" departLane="best">
        <route edges="-866 805 793 775 689 688 -679 692 733#0 733#1 733#2 733#3 878#4 695 734#0 734#1 734#2 734#3 734#4 732#0 732#1 732#2 732#3 747#0 282#1 282#2 -700#1 -700#0 -682#1 -682#0 879#7 879#8 -741#1 -741#0 -1480#3 -1480#2 -1480#1 -1480#0 -888#1 -743#1 -743#0 1484#1 1484#2 787#0 787#1 787#2 787#3 787#4 787#5 -193 -816#2 -816#1 -816#0 298#0 -929#7 -929#6 -929#5 -929#4 -929#3 -929#2 -929#1 -929#0 -1404#9 -1404#8 -1404#7 -1404#6 -1404#5 -1404#3 -1404#2 -1404#1 -1404#0 315"/>
    </vehicle>
    <vehicle id="bicycle_1_29" type="bicycle" depart="21381.00" departLane="best">
        <route edges="726#2 857#2 857#3 857#4 857#0 857#1 -726#2 -726#1 -720 -110 858#0 858#1 858#2 455 -683#2 -696 -622#3 -622#2"/>
    </vehicle>
    <vehicle id="bicycle_1_634" type="bicycle" depart="21448.00" departLane="best">
        <route edges="-815#2 -815#1 -815#0 894 804#1 804#2 817#1 902#4 893 208 -812#2 -812#1 -1404#0 443#0 443#1 15#2 15#3 15#4 15#5 737#0 737#2 878#3 878#4 695 734#0 734#1 734#2 734#3 734#4 732#0 732#1 732#2 732#3 747#0 282#1 282#2 -700#1 -700#0 -682#1 -682#0 879#7 879#8 -741#1 -741#0 -1480#3 -1480#2 -1480#1 -1480#0 -888#1 -888#0 863#0 863#1 863#2 116 111 862#0 862#1 675"/>
    </vehicle>
    <vehicle id="bicycle_1_714" type="bicycle" depart="21457.00" departLane="best">
        <route edges="353#1 -352 884#1 212 -529#2 -529#1 -529#0 351#3 351#4 351#1 -494#4 -494#3 -494#2 -494#1"/>
    </vehicle>
    <vehicle id="bicycle_1_623" type="bicycle" depart="21464.00" departLane="best">
        <route edges="735 863#2 116 617#0 683#0 683#1 683#2 -455 -858#2 -858#1 -858#0 110 720 726#1 726#2 857#2 857#3"/>
    </vehicle>
    <vehicle id="bicycle_1_888" type="bicycle" depart="21514.00" departLane="best">
        <route edges="-601#2 -601#1 -609#2 -394#5 -628 627#1 627#2 627#3 -617#3 -617#2 -617#1 -617#0 111 862#0"/>
    </vehicle>
    <vehicle id="bicycle_1_639" type="bicycle" depart="21582.00" departLane="best">
        <route edges="584#0 585#0 585#1 585#2 585#3 1481 593#0 593#1 593#2 593#3 593#4 593#5 564#0 588#1 588#2 -691#0 726#0 726#1 726#2 857#2 857#3 736 879#1 879#2 879#3 879#4 879#5 879#6 879#7 879#8 879#11 878#1 878#2 878#3 -733#3 -733#2 -733#1 -733#0 -692 679 -688 -689 -775 -793 -805 866 782"/>
    </vehicle>
    <vehicle id="bicycle_2_181" type="bicycle" depart="21589.00" departLane="best">
        <route edges="100 239#1 103 497#1 243 494#0 494#1 494#2 494#3 494#4 351#2 351#3 351#4 -350 -105 -519#3 -519#2 -519#1 -519#0 -582#10 -582#9 -582#8 -582#7 -582#6 -582#5 -582#4 -583#2 -583#1 -583#0 593#5"/>
    </vehicle>
    <vehicle id="bicycle_1_669" type="bicycle" depart="21591.00" departLane="best">
        <route edges="1145#3 1146#2 1146#3 1146#4 1146#5 1146#6 -293#0 -790#2 -790#1 -790#0 903 902#3 902#4 893 208 -812#2 -812#1 -1404#0 443#0 443#1 15#2 15#3 15#4 15#5 737#0 737#2 878#3 878#4 695 734#0 734#1 734#2 734#3 734#4 732#0 732#1 732#2 732#3 732#4 732#5 857#0 857#1 857#2"/>
    </vehicle>
    <vehicle id="bicycle_1_688" type="bicycle" depart="21602.00" departLane="best">
        <route edges="863#2 116 111 862#0 862#1 675 112 701#0"/>
    </vehicle>
    <vehicle id="bicycle_1_425" type="bicycle" depart="21705.00" departLane="best">
        <route edges="1326#1 1326#2 1326#3 1324#4 932#0 932#1 563#1 563#2 563#3 563#4 563#5 1334#0 1334#1 1334#2 595 630#2 630#3 619 620 572#0 572#1 572#2 -593#5 -593#4 -593#3 -593#2 -593#1 -593#0 586 569#1 569#2 439#0 439#2 439#4 439#5 439#6 439#7 439#8 439#9 360#3 360#4"/>
    </vehicle>
    <vehicle id="bicycle_2_176" type="bicycle" depart="21748.00" departLane="best">
        <route edges="929#7 298#2 816#0 816#1 816#2 193 -787#5 -787#4 -787#3 -787#2 -787#1 -787#0 1484#3 1484#1 -698 -717 -730#8 -728#5 -728#4 -728#3 -728#2 -728#1 -728#0 -1369#0 -1373#1 -1373#0 924#1 1255 1365"/>
    </vehicle>
    <vehicle id="bicycle_1_690" type="bicycle" depart="21776.00" departLane="best">
        <route edges="582#2 582#3 630#1 630#2 630#3 -617#5 394#0 394#1 394#2 394#3 -628 627#1 627#2 627#3 617#4 617#5"/>
    </vehicle>
    <vehicle id="bicycle_1_232" type="bicycle" depart="21788.00" departLane="best">
        <route edges="240#1 360#5 360#0 360#1 440#0 440#1 440#2 440#3 440#4 440#6 440#8 569#4 585#3 1481 593#0 593#1 593#2 593#3 593#4 593#5 564#0 588#1 588#2 691#2 -580 -632 -683#3 -683#2 -683#1 -683#0 -617#0 -369#1"/>
    </vehicle>
    <vehicle id="bicycle_1_588" type="bicycle" depart="21790.00" departLane="best">
        <route edges="728#2 728#3 728#4 728#5 730#8 717 698 1484#2 787#0 787#1 787#2 787#3 787#4 787#5 -193 -816#2 -816#1 -816#0 298#0 -929#7 -929#6 -929#5 -929#4 -929#3 -929#2 -929#1 -929#0 -1404#9 -1404#8 -1404#7 -1404#6 -1404#5 -1404#3 -1404#2 -1404#1 812#1 812#2 -208 -893 902#0 902#1 902#3 -817#1 -804#2 -804#1 -804#0 815#0 1491#3 -795"/>
    </vehicle>
    <vehicle id="bicycle_1_341" type="bicycle" depart="21798.00" departLane="best">
        <route edges="316#0 -856#2 -856#1 -856#0 816#0 816#1 816#2 193 -787#5 -787#4 -787#3 -787#2 -787#1 -787#0 1484#3 864#0 864#1 864#2 730#11 675 112 701#0 701#1"/>
    </vehicle>
    <vehicle id="bicycle_1_647" type="bicycle" depart="21808.00" departLane="best">
        <route edges="863#1 863#2 116 111 862#0 709 701#2 888#0 888#1 1480#0 1480#1 1480#2 1480#3 741#0 741#1 879#11 878#1 878#2 878#3 -733#3 -733#2 -733#1 -733#0 -692 679 -688 1201"/>
    </vehicle>
    <vehicle id="bicycle_1_754" type="bicycle" depart="21829.00" departLane="best">
        <route edges="240#1 360#5 360#0 360#1 440#0 440#1 440#2 440#3 440#4 440#6 440#8 569#4 585#3 1481 593#0 593#1 593#2 593#3 593#4 593#5 564#0 588#1 588#2 691#2 -580 -632 -683#3 -683#2 -683#1 -683#0 -617#0 111 862#0 862#1 -730#11 -864#2 -864#1 -864#0 743#0 743#1 -888#0 863#0"/>
    </vehicle>
    <vehicle id="bicycle_1_593" type="bicycle" depart="21849.00" departLane="best">
        <route edges="708#1 -748#0 -907#1 -907#0 -888#5 -888#4 -888#3 -888#2 -888#1 -743#1 -743#0 1484#1 -698 -717 -730#8 -730#7 -730#6 -730#5 -730#4 -730#3 -752#6 -752#5 -752#4 -752#3 -752#2"/>
    </vehicle>
    <vehicle id="bicycle_2_197" type="bicycle" depart="21862.00" departLane="best">
        <route edges="728#5 730#8 717 698 1484#2 1484#3 743#0 743#1 888#1 888#2 888#3 888#4 888#5 907#0 907#1 748#0 748#1 748#2"/>
    </vehicle>
    <vehicle id="bicycle_2_223" type="bicycle" depart="21944.00" departLane="best">
        <route edges="1579 -1348#1 -1348#0 -1315#6 -1315#5 -542#0 -1312#5 -1312#4 -1312#3 -1312#2 -1312#1 -1312#0 137 1314 1423 200 944#0 944#1 944#2 944#3 1302#1 1302#2 1302#3 1302#4 1302#5 1302#6 1302#7 1302#8 1302#9 1302#10 1302#11 1302#12 1302#13 1302#14 850#1 850#2 850#3 -1327#1 -1327#0 563#0 563#1 563#2 563#3 563#4 563#5 1334#0 1334#1 1334#2 595 630#2 630#3 -617#5 -617#4 -617#3 -617#2 -617#1 -617#0 111 862#0 862#1 -730#11 -864#2 -864#1 -864#0 1484#1 1484#2 787#0 787#1 787#2 787#3 787#4 787#5 -193 -816#2 -816#1 -816#0 298#0 -929#7 -929#6 -929#5 -929#4 -929#3 -929#2 -929#1 -929#0 -1404#9 -1404#8 -1404#7 -1404#6 -1404#5 -1404#3 -1404#2 -1404#1 812#1 812#2 -208 -893 902#0 902#1 -903 790#0 790#1 292#0"/>
    </vehicle>
    <vehicle id="bicycle_2_246" type="bicycle" depart="21979.00" departLane="best">
        <route edges="-1404#9 -1404#8 -1404#7 -1404#6 -1404#5 -1404#3 -1404#2 -1404#1 812#1 812#2 -208 -893 902#0 902#1 -903 790#0 790#1 292#0 292#1 1169#2 1218#2"/>
    </vehicle>
    <vehicle id="bicycle_1_804" type="bicycle" depart="22009.00" departLane="best">