<?xml version="1.0" encoding="UTF-8"?>

<!--
    Monaco SUMO Traffic (MoST) Scenario
    Copyright (C) 2018
    Lara CODECA

    This program is free software: you can redistribute it and/or modify
    it under the terms of the GNU General Public License as published by
    the Free Software Foundation, either version 3 of the License, or
    (at your option) any later version.

    This program is distributed in the hope that it will be useful,
    but WITHOUT ANY WARRANTY; without even the implied warranty of
    MERCHANTABILITY or FITNESS FOR A PARTICULAR PURPOSE.  See the
    GNU General Public License for more details.

    You should have received a copy of the GNU General Public License
    along with this program.  If not, see <http://www.gnu.org/licenses/>.
-->

<routes xmlns:xsi="http://www.w3.org/2001/XMLSchema-instance" xsi:noNamespaceSchemaLocation="http://sumo.dlr.de/xsd/routes_file.xsd"> 
    <vehicle id="commercial_3-1_297" type="commercial" depart="18001" departLane="best" arrivalPos="random">
        <route edges="-153396#3 -153396#2 -153396#1 -153396#0 -152415#2 -152415#1 -152415#0 152414 -152539 152930#4 152413 152533 152329#1 152289 152857 152211 152538 152395 153643 152331#0 152331#1 152331#2 152331#3 152331#4 152331#5 152331#6 152331#7 152167 152169#0 152169#1 152400#1 152400#2 152903#0 152903#1 152321 152404 -152960 152897#1 152897#2 152984#0 152984#1 152984#2 -152985 152875#0 152875#1 152875#2 152164#0"/>
    </vehicle>
    <vehicle id="commercial_1-GW1_266" type="commercial" depart="18040" departLane="best" arrivalPos="random">
        <route edges="-153382#2 153567#0 153567#1 -153567#1 -153567#0 153382#2 153382#3 153382#4 153382#5 152592#1 152592#2 152584#2 152584#3 152584#4 152456#2 152456#3 152608#0 152608#1 -152619 -152612 152604 152609 152364#3 152364#0 152364#1 -152671#1 -152671#0 -152227 -152291 -152763 -152292 -152802 -152293 -152796 152294 152386 -152207 152463 152312 152313#2 -152310 152319#1 152319#2 152319#3 152140 152138#0 152139 152970 -152271 -152420 -152960 153478#1 153478#2 153478#3 153478#5 153478#6 153478#7 153478#8 153478#9 153478#10 153478#11 153478#12 153478#13 153478#14 153478#15 153478#16 153478#17 153478#18 153478#19 153478#20 153478#22 153478#23 153478#24 153478#25 153478#26 -152304 -153344 -152303 -153479#1 -153479#0 -152258 -152929 -152305 -153480"/>
    </vehicle>
    <vehicle id="commercial_2-1_376" type="commercial" depart="18043" departLane="best" arrivalPos="random">
        <route edges="153389#6 153422#0 153422#1 153422#2 153422#3 153422#4 153422#5 153422#6 153422#7 153414#3 153414#4 -153331#5 -153331#4 -153333#11 -153333#10 -153333#9 -153333#8 -153333#7 -153333#6 -153333#5 -153333#4 -153333#2 -153333#1 -153333#0 -153417#1 -153417#0 153415#14 153415#15 153415#16 152999 153001 152708#0 152708#1 152708#2 152708#3 -152703#2 -152703#1 -152703#0 152230 152945#0 152795 152787#2 152168 152971#0 152971#1 152971#2 152971#3 152989#0 152989#1 152989#2 -152989#2 -152989#1 -152989#0 -152971#3 -152971#2 -152971#1 -152971#0"/>
    </vehicle>
    <vehicle id="commercial_GW2-1_99" type="commercial" depart="18046" departLane="best" arrivalPos="random">
        <route edges="153658 152284 -152557 -153359#2 -153356#2 -153356#1 -153356#0 -153361#1 -153361#0 -153325#4 -153325#3 -153325#2 -153325#1 -153325#0 -153367#4 -153367#3 -153367#1 -153367#0 152347#1 152222 152587#1 152351 152584#0 152584#1 152584#2 152584#3 152584#4 152456#2 152456#3 152456#4 -152455 -152224 -152170 -152607#2 -152607#1 -152607#0 -152669#10 -152669#9 -152669#8 -152669#7 -152669#6 -152669#5 -152669#4 152716 152175#0 152175#1 -152703#5 -152703#4 -152703#3 -152703#2 -152703#1 -152703#0 152230 152945#0 152945#1 -152816#11 -152816#10 -152816#9 -152816#8 -152816#7 -152816#6 -152816#5 -152816#4 -152816#3 -152838#6 -152838#5 -152838#4"/>
    </vehicle>
    <vehicle id="commercial_1-GW2_131" type="commercial" depart="18054" departLane="best" arrivalPos="random">
        <route edges="-152894#1 -152894#0 -153446#4 -153446#3 -153446#2 -153446#0 153442#1 153442#2 153442#3 153442#4 153442#5 153442#6 -152256#1 -152256#0 -153425#4 -153425#3 -153425#2 -153425#1 -153425#0 152255 153414#0 153414#1 153414#2 153414#3 153414#4 153414#5 152252 153387#0 153387#1 152251 153385#0 153385#1 153385#2 153385#3 153385#4 153385#5 -152247 153371#0 153371#1 152246 152567 152308 -153374#4 -153374#3 -153374#2 -153374#1 -153374#0 152560#1 152560#2 152560#3 152560#5 152560#6 153361#0 153361#1 153356#0 153356#1 153356#2 153359#2 -152959 -152284 152556"/>
    </vehicle>
    <vehicle id="commercial_1-3_234" type="commercial" depart="18055" departLane="best" arrivalPos="random">
        <route edges="152425 152207 -152386 -152294 152796 152293 152802 152292 152763 152291 152288 152656#1 152656#2 152656#3 152656#4 152672#3 152672#4 152283 -152291 -152763 -152292 -152802 -152293 -152796 152294 152386 -152207 152463 152312 152313#2 -152310 152319#1 152319#2 -152309 152282 152532 -152331#7 -152331#6 -152331#5 -152331#4 -152331#3 -152331#2 -152331#1 -152331#0 153639 152407 -153009#6 -153458#6 -153458#5 -153458#4 -153458#3 -153458#2 -153458#1 -153458#0 153453#5 153437#0 153437#1 153437#2 153437#3 152418#1 152415#0 152415#1 152415#2 153396#0 153396#1 153396#2 -152481 152481 -153396#2"/>
    </vehicle>
    <vehicle id="commercial_1-3_37" type="commercial" depart="18066" departLane="best" arrivalPos="random">
        <route edges="-152399#2 152648 -152299 -152875#3 -152875#2 -152875#1 -152875#0 152985 152984#3 152984#4 152975 -152897#1 153478#1 153478#2 153478#3 153478#5 153478#6 153478#7 153478#8 153478#9 153478#10 153478#11 153478#12 153478#13 153478#14 153478#15 153478#16 153478#17 153478#18 153478#19 153478#20 153478#22 153478#23 153478#24 153478#25 153478#26 -152304 -153344 -152303 -153479#1 -153479#0 -152258 -152929"/>
    </vehicle>
    <vehicle id="commercial_1-1_371" type="commercial" depart="18069" departLane="best" arrivalPos="random">
        <route edges="-152779 152385 152818#0 152818#1 152818#2 152818#3 152818#4 152818#5 152789#0 152789#1 152789#2 152764 152290 152664 152656#2 152536#0 152536#2 152536#4 152536#5 152536#6 152536#7"/>
    </vehicle>
    <vehicle id="commercial_1-GW2_77" type="commercial" depart="18087" departLane="best" arrivalPos="random">
        <route edges="-152770 152760 152820#3 152820#4 152818#0 152818#1 152818#2 152818#3 152818#4 152818#5 -152812#2 -152812#1 -152812#0 152777#0 152777#2 152777#3 152777#4 152777#5 -152704#1 -152704#0 152669#1 152669#2 152669#3 152669#4 152669#5 152669#6 152669#7 152669#8 152669#9 152669#10 152669#11 152607#1 152607#2 152170 152224 152455 152456#1 -152584#4 -152584#3 -152584#2 -152584#1 -152584#0 152578 152220 153367#0 153367#1 153367#3 153367#4 153325#0 153325#1 153325#2 153325#3 153325#4 153361#0 153361#1 153356#0 153356#1 153356#2 153359#2 -152959 -152284 152556"/>
    </vehicle>
    <vehicle id="commercial_1-GW1_98" type="commercial" depart="18109" departLane="best" arrivalPos="random">
        <route edges="-152796 152294 152386 -152207 152463 152312 152313#2 -152310 152319#1 152319#2 152319#3 152140 152138#0 152139 152970 -152271 -152420 -152960 153478#1 153478#2 153478#3 153478#5 153478#6 153478#7 153478#8 153478#9 153478#10 153478#11 153478#12 153478#13 153478#14 153478#15 153478#16 153478#17 153478#18 153478#19 153478#20 153478#22 153478#23 153478#24 153478#25 153478#26 -152304 -153344 -152303 -153479#1 -153479#0 -152258 -152929 -152305 -153480"/>
    </vehicle>
    <vehicle id="commercial_GW1-1_299" type="commercial" depart="18129" departLane="best" arrivalPos="random">
        <route edges="153480 152305 152929 152258 153479#0 153479#1 152303 153344 152304 -153478#26 -153478#25 -153478#24 -153478#23 -153478#22 -153478#20 -153478#19 -153478#18 -153478#17 -153478#16 -153478#15 -153478#14 -153478#13 -153478#12 -153478#11 -153478#10 -153478#9 -153478#8 -153478#7 -153478#6 -153478#5 -153478#3 -153478#2 -153478#1 -153478#0 152420 152271 152421#0 152421#1 152309 152319#3 152319#4 152310 152313#3 152313#0 152272 152425 152207 -152386 -152294 152796 152293 152802 152292 152763 152291 152288 152656#1 152656#2 152536#0 152536#2 152536#4 152536#5 152536#6 152536#7 -152166#1 -152459#2 -152459#1 -152459#0 152459#2 152166#1"/>
    </vehicle>
    <vehicle id="commercial_1-3_314" type="commercial" depart="18137" departLane="best" arrivalPos="random">
        <route edges="-152863 -152862 152778 152819#0 152819#1 152819#2 152819#3 152961#5 152961#1 152961#2 152961#3 -152823#2 -152823#1 -152823#0 152138#6 152138#7 152138#0 152139 152970 -152271 -152420 -152960 153478#1 153478#2 153478#3 153478#5 153478#6 153478#7 153478#8 153478#9 153478#10 153478#11 153478#12 153478#13 153478#14 153478#15 153478#16 153478#17 153478#18 153478#19 153478#20 153478#22 153478#23 153478#24 153478#25 153478#26 -152304 -153344 -152303 -153479#1 -152905"/>
    </vehicle>
    <vehicle id="commercial_GW1-1_416" type="commercial" depart="18149" departLane="best" arrivalPos="random">
        <route edges="152527#0 152527#0-AddedOffRampEdge 152531 152281 152534 152205 152327 152204 152329#0 152329#1 152289 152857 152211 152538 152395 153643 152331#0 152331#1 152331#2 152331#3 152331#4 152331#5 152331#6 152331#7 152167 152169#0 152169#1 152400#1 152400#2 152903#0 152903#1 152990 152816#0 152816#1 152816#2 152816#3 152816#4 152816#5 152816#6 152816#7 152816#8 152816#9 152816#10 152816#11 152761 152231 152787#0 152821 152946#2 152235 152703#0 152703#1 152703#2 152703#3 152703#4 152703#5 152705 152707#0 152707#1 152176 152680 152544 152649#0 152650#0 152650#1 152650#2 152650#3 152650#4 152650#5 152650#6 152354#2 152354#3 -152515#1 -152608#9 -152608#8 -152608#7 -152939#4 -152939#3 -152939#2 -152939#1 -152939#0 152967#0 152967#1 152320 -152617#2 -152617#1"/>
    </vehicle>
    <vehicle id="commercial_1-3_273" type="commercial" depart="18154" departLane="best" arrivalPos="random">
        <route edges="152290 152664 152656#2 152656#3 152656#4 152672#3 152672#4 152283 -152291 -152763 -152292 -152802 -152293 -152796 152294 152386 -152207 152463 152312 152313#2 -152310 152319#1 152319#2 -152309 152282 152532 -152331#7 -152331#6 -152331#5 -152331#4 -152331#3 -152331#2 -152331#1 -152331#0 153639 152407 -153009#6 -153458#6 -153458#5 -153458#4 -153458#3 -153458#2 -153458#1 -153458#0 -153453#4 -153453#3 -153453#2 -153453#1 -153453#0 -153454#1 153459"/>
    </vehicle>
    <vehicle id="commercial_1-GW2_192" type="commercial" depart="18160" departLane="best" arrivalPos="random">
        <route edges="152608#5 152608#6 -152939#4 -152939#3 -152939#2 -152939#1 -152939#0 152943#0 152943#1 152943#2 152943#3 152943#4 152285 152591 152592#1 152592#2 -152584#1 -152584#0 152578 152220 153367#0 153367#1 153367#3 153367#4 153325#0 153325#1 153325#2 153325#3 153325#4 153361#0 153361#1 153356#0 153356#1 153356#2 153359#2 -152959 -152284 152556"/>
    </vehicle>
    <vehicle id="commercial_1-1_627" type="commercial" depart="18161" departLane="best" arrivalPos="random">
        <route edges="-152608#8 -152608#7 -152939#4 -152939#3 -152939#2 -152939#1 -152939#0 152967#0 152457 152458#0 152458#1 -152457 -152967#0 152939#0 152939#1 152939#2 152939#3"/>
    </vehicle>
    <vehicle id="commercial_GW1-1_370" type="commercial" depart="18163" departLane="best" arrivalPos="random">
        <route edges="153480 152305 152929 152258 153479#0 153479#1 152303 153344 152304 -153478#26 -153478#25 -153478#24 -153478#23 -153478#22 -153478#20 -153478#19 -153478#18 -153478#17 -153478#16 -153478#15 -153478#14 -153478#13 -153478#12 -153478#11 -153478#10 -153478#9 -153478#8 -153478#7 -153478#6 -153478#5 -153478#3 -153478#2 -153478#1 -153478#0 152420 152271 152421#0 152421#1 152309 152319#3 152319#4 152310 152313#3 -152306 -152833#2 -152833#1 -152833#0 152818#4 152818#5 -152812#2 -152812#1 -152812#0 152777#0 152777#2 152777#3 152777#4 152777#5 -152704#1 -152704#0 152669#1 152669#2 152669#3 152669#4 152669#5 152669#6 152669#7 152669#8 152669#9 152669#10 152669#11 152607#1 152607#2 152170 152224 152455 152456#1 152456#2 152617#0 152617#1 152617#2 -152320 -152967#1 152457"/>
    </vehicle>
    <vehicle id="commercial_2-1_89" type="commercial" depart="18167" departLane="best" arrivalPos="random">
        <route edges="153476 -153478#25 -153478#24 -153478#23 -153478#22 -153478#20 -153478#19 -153478#18 -153478#17 -153478#16 -153478#15 -153478#14 -153478#13 -153478#12 -153478#11 -153478#10 -153478#9 -153478#8 -153478#7 -153478#6 -153478#5 -153478#3 -153478#2 -153478#1 -153478#0 152540#0 152540#1 152138#2 152138#3 152138#4 152138#5 152823#0 152823#1 152823#2 152961#4 -152819#3 -152819#2 -152819#1 -152819#0 -152778 152862 152864 -152891 152887 152886#0 152886#1 152883 152884 152944 152882#1 152882#2 152879 152871 152865 152870"/>
    </vehicle>
    <vehicle id="commercial_1-3_279" type="commercial" depart="18180" departLane="best" arrivalPos="random">
        <route edges="152425 152207 -152386 -152294 152796 152293 152802 152292 152763 152291 152288 152656#1 152656#2 152656#3 152656#4 152672#3 152672#4 152283 -152291 -152763 -152292 -152802 -152293 -152796 152294 152386 -152207 152463 152312 152313#2 -152310 152319#1 152319#2 -152309 152282 152532 -152331#7 -152331#6 -152331#5 -152331#4 -152331#3 -152331#2 -152331#1 -152331#0 153639 152407 -153009#6 -153458#6 -153458#5 -153458#4 -153458#3 -153458#2 -153458#1 -153458#0 153453#5 153437#0 153437#1 153437#2 153437#3 152418#1 152415#0 152415#1 152415#2 152415#3"/>
    </vehicle>
    <vehicle id="commercial_2-1_64" type="commercial" depart="18197" departLane="best" arrivalPos="random">
        <route edges="-152913#1 -152913#0 152896#1 152875#1 152397#1 152397#2 152460#2 152460#3 -152453 152876#1 152876#2 153640 152298#0 152298#0-AddedOffRampEdge 152298#1 152969 152818#2 152818#3 152818#4 152818#5 -152812#2 -152812#1 -152812#0 152777#0 -152674#2 -152674#1 -152652#0 -152679#5 152670#0 152670#1 152670#2 -152669#3"/>
    </vehicle>
    <vehicle id="commercial_1-GW1_253" type="commercial" depart="18209" departLane="best" arrivalPos="random">
        <route edges="153331#1 153331#2 153331#3 -153333#11 -153333#10 -153333#9 -153333#8 -153333#7 -153333#6 -153333#5 -153333#4 -153333#2 -153333#1 -153333#0 -153417#1 -153417#0 153415#14 153415#15 153415#16 152999 153001 152708#0 152708#1 152708#2 152708#3 -152703#2 -152703#1 -152703#0 152230 152945#0 152795 152787#2 152168 152971#0 152971#1 152971#2 152971#3 -152797#1 152826#0 152826#1 152138#7 152138#0 152139 152970 -152271 -152420 -152960 153478#1 153478#2 153478#3 153478#5 153478#6 153478#7 153478#8 153478#9 153478#10 153478#11 153478#12 153478#13 153478#14 153478#15 153478#16 153478#17 153478#18 153478#19 153478#20 153478#22 153478#23 153478#24 153478#25 153478#26 -152304 -153344 -152303 -153479#1 -153479#0 -152258 -152929 -152305 -153480"/>
    </vehicle>
    <vehicle id="commercial_3-1_373" type="commercial" depart="18212" departLane="best" arrivalPos="random">
        <route edges="152412 152533 152329#1 152289 152857 152211 152538 152395 153643 152331#0 152331#1 152331#2 152331#3 152331#4 152331#5 152331#6 152331#7 152167 152169#0 152169#1 152400#1 152400#2 152903#0 152903#1 152321 152404"/>
    </vehicle>
    <vehicle id="commercial_1-1_224" type="commercial" depart="18219" departLane="best" arrivalPos="random">
        <route edges="152782 -152769#1 -152769#0 -152703#0 152230 152945#0 152795 152787#2 152168 152971#0 152971#1 152971#2 152971#3 -152797#1 152826#0 152826#1 152138#7 152138#0 152138#1 152138#2 -152859 152300 -152900#2 -152900#1"/>
    </vehicle>
    <vehicle id="commercial_2-1_231" type="commercial" depart="18238" departLane="best" arrivalPos="random">
        <route edges="-152484 -152371#0 153442#6 -152256#1 -152256#0 -153425#4 -153425#3 153412#0 153412#1 153412#2 153412#3 153412#4 153412#5 153412#6 153412#7 153412#8 153412#9 -153333#2 -153333#1 -153333#0 -153417#1 -153417#0 153415#14 153415#15 153415#16 152999 153001 152708#0 152708#1 152708#2 152708#3 152782 152769#2 152769#3 152718 152382 -152777#0 152812#0 152812#1 152812#2 152822 152962#1 152807#0 152807#1 152807#2 -152768#1 -152768#0"/>
    </vehicle>
    <vehicle id="commercial_1-1_511" type="commercial" depart="18243" departLane="best" arrivalPos="random">
        <route edges="-152790 -152870 -152865 -152871 -152879 -152882#2 -152882#1 -152882#0 -152884 -152883 -152886#1 -152886#0 -152887 152891 -152863 -152862 152778 152819#0 152819#1 152819#2 152819#3 152961#5 152781 152820#0 152820#1 152820#2 152820#3 152820#4 152818#0 152818#1 152818#2 152818#3 152818#4 152818#5 -152812#2 -152812#1 -152806 152941#1 152941#2 152548 -152769#2 -152769#1 -152769#0 -152703#0 152230 152945#0 152945#1 -152816#11"/>
    </vehicle>
    <vehicle id="commercial_1-1_459" type="commercial" depart="18247" departLane="best" arrivalPos="random">
        <route edges="152230 152945#0 152795 152787#2 152946#1 152946#2 152235 152703#0 152769#0 152769#1 152769#2 152769#3 152718 152382 -152674#2 -152674#1 -152652#0 -152679#5 -152679#4 -152679#3 -152679#2 -152679#1 -152679#0 152656#0 152656#1 152656#2 152536#0 152536#2 152536#4 152536#5 152536#6"/>
    </vehicle>
    <vehicle id="commercial_2-1_285" type="commercial" depart="18261" departLane="best" arrivalPos="random">
        <route edges="153415#0 153415#1 153415#3 153415#4 153415#5 153415#6 153415#7 153415#8 153415#9 153415#10 153415#11 153415#12 153415#13 153415#14 153415#15 153415#16 152999 153001 152708#0 152708#1 152708#2 152708#3 152782 152769#2 152769#3 152718 152382 -152777#0 152772"/>
    </vehicle>
    <vehicle id="commercial_1-2_43" type="commercial" depart="18263" departLane="best" arrivalPos="random">
        <route edges="-152901#0 152403#0 152403#1 152403#2 152403#3 152901#0 152901#1 153008#0 153008#1 153008#2 153008#3 152169#0 152169#1 152400#1 152400#2 152400#3 -152893#1 -152893#0 152301 -152894#1 -152894#0 -153446#4 -153446#3 -153446#2 153337#0 153337#1 153337#2 153337#3 153337#4 153337#5 152839"/>
    </vehicle>
    <vehicle id="commercial_GW2-1_261" type="commercial" depart="18278" departLane="best" arrivalPos="random">
        <route edges="153454#0 153454#1 153454#2 153453#1 153453#2 153453#3 153453#4 153453#5 153453#6 153453#7 153435#1 152736#0 -152738#2 -152738#1 -152738#0 153393#0 153393#1 153394#1 153389#1 153389#2 -152630#1 -152630#0 -153386#1 -153386#0 -152178 -152177#2 -152177#1 -152177#0 153385#1 153385#2 153385#3 153385#4 153385#5 -152247 153371#0 153371#1 152246 152567 152308 -153374#4 -153374#3 -153374#2 153482#0 153482#1 153482#2 153482#3 153482#4 153482#5 153482#6 153482#7 152587#1 152351 152584#0 152584#1 -152592#2 -152595 152595 152592#2"/>
    </vehicle>
    <vehicle id="commercial_1-1_348" type="commercial" depart="18293" departLane="best" arrivalPos="random">
        <route edges="152515#0 152515#1 152354#4 152354#1 152354#2 152355#0 152355#1 -152654#0 -152669#10 -152669#9 -152669#8 -152669#7 -152669#6 -152669#5 -152669#4 -152669#3 -152669#2 -152669#1 152704#0 152704#1 -152777#5 -152777#4 -152777#3 -152777#2 -152777#0 152812#0 152812#1 152812#2 152822 152962#1 152962#2 152962#3 152962#4 152306 152313#0 152313#1 152313#2 -152310 152319#1 152318 -152900#2 -152900#1 -152900#0 152976 152889#1 -153560 153561#1"/>
    </vehicle>
    <vehicle id="commercial_1-3_154" type="commercial" depart="18298" departLane="best" arrivalPos="random">
        <route edges="-152814#1 -152814#0 153443#1 153448 152832#1 152832#2 -152838#4 -152838#3 -152838#2 -152838#1 -152838#0 153446#5 152894#1 -152301 152893#0 152893#1 152400#0 -152169#1 -152169#0 -152167 -152331#7 -152331#6 -152331#5 -152331#4 -152331#3 -152331#2 -152331#1 -152331#0 153639 153636#1 153638#1 153004#0 153004#1 -153460#1 152905"/>
    </vehicle>
    <vehicle id="commercial_1-GW1_387" type="commercial" depart="18304" departLane="best" arrivalPos="random">
        <route edges="152613#0 -152617#0 152456#3 152608#0 152608#1 -152619 -152612 152604 152609 152364#3 152364#0 152364#1 -152671#1 -152671#0 -152227 -152291 -152763 -152292 -152802 -152293 -152796 152294 152386 -152207 152463 152312 152313#2 -152310 152319#1 152319#2 152319#3 152140 152138#0 152139 152970 -152271 -152420 -152960 153478#1 153478#2 153478#3 153478#5 153478#6 153478#7 153478#8 153478#9 153478#10 153478#11 153478#12 153478#13 153478#14 153478#15 153478#16 153478#17 153478#18 153478#19 153478#20 153478#22 153478#23 153478#24 153478#25 153478#26 -152304 -153344 -152303 -153479#1 -153479#0 -152258 -152929 -152305 -153480"/>
    </vehicle>
    <vehicle id="commercial_1-3_324" type="commercial" depart="18305" departLane="best" arrivalPos="random">
        <route edges="-153382#3 -153382#2 153567#0 153567#1 -153567#1 -153567#0 153382#2 153382#3 153382#4 153382#5 152592#1 152592#2 -152584#1 -152584#0 152578 152220 152347#1 152222 -153482#7 -153482#6 -153482#5 -153482#4 -153482#3 -153482#2 -153482#1 -153482#0 153374#2 153374#3 153374#4 -152308 -152567 -152246 -153371#1 -153371#0 152247 -153385#5 -153385#4 -153385#3 -153385#2 -153385#1 -153388 152177#1 152177#2 152178 153386#0 153386#1 153386#2 152630#1 -153389#2 -153389#1 -153394#1 -153393#1 -153393#0 152738#0 152738#1 152738#2 -152736#0 -153426#0 -153435#0 -153453#6 153437#0 153437#1 153437#2 153437#3 152418#1 152415#0 152415#1 152415#2 152415#3 152253 153397 152254 -153438"/>
    </vehicle>
    <vehicle id="commercial_1-GW2_102" type="commercial" depart="18311" departLane="best" arrivalPos="random">
        <route edges="-152710#1 -152710#0 152973#1 152973#2 152973#3 152973#4 152973#5 152815 -152816#8 -152816#7 -152816#6 -152816#5 -152816#4 -152816#3 -152816#2 -152816#1 -152816#0 152991 -152903#1 -152903#0 152400#3 152400#0 -152169#1 -152169#0 -152167 -152331#7 -152331#6 -152331#5 -152331#4 -152331#3 -152331#2 -152331#1 -152331#0 153639 152407 -153009#6 -153458#6 -153458#5 -153458#4 -153458#3 -153458#2 -153458#1 -153458#0 -153453#4 -153453#3 -153453#2 -153453#1 -153453#0 -153454#1 -153454#0"/>
    </vehicle>
    <vehicle id="commercial_GW1-1_385" type="commercial" depart="18320" departLane="best" arrivalPos="random">
        <route edges="153480 152305 152929 152258 153479#0 153479#1 152303 153344 152304 -153478#26 -153478#25 -153478#24 -153478#23 -153478#22 -153478#20 -153478#19 -153478#18 -153478#17 -153478#16 -153478#15 -153478#14 -153478#13 -153478#12 -153478#11 -153478#10 -153478#9 -153478#8 -153478#7 -153478#6 -153478#5 -153478#3 -153478#2 -153478#1 -153478#0 152420 152271 152421#0 152421#1 152309 152319#3 152319#4 152310 152313#3 -152306 -152833#2 -152833#1 -152833#0 152818#4 152818#5 -152812#2 -152812#1 -152812#0 152777#0 152777#2 152777#3 152777#4 152777#5 -152704#1 -152704#0 152669#1 152669#2 152669#3 152669#4 152669#5 152669#6 152669#7 152669#8 152669#9 152669#10 152654#0 152654#1 -152355#0 152354#3 -152515#1 -152608#9"/>
    </vehicle>
    <vehicle id="commercial_1-3_257" type="commercial" depart="18324" departLane="best" arrivalPos="random">
        <route edges="-153560 153561#1 153561#2 152900#1 152900#2 -152300 152859 152138#3 152138#4 152138#5 152138#6 152138#7 -152140 152319#4 152319#1 152319#2 -152309 152282 152532 -152331#7 -152331#6 -152331#5 -152331#4 -152331#3 -152331#2 -152331#1 -152331#0 153639 152407 -153009#6 -153458#6 -153458#5 -153458#4 -153458#3 -153458#2 -153458#1 -153458#0 153453#5 153437#0 153437#1 153437#2 153437#3 152418#1 152415#0 -152752#8 -152752#7 -152752#5 -152752#4 -152752#2"/>
    </vehicle>
    <vehicle id="commercial_1-2_178" type="commercial" depart="18344" departLane="best" arrivalPos="random">
        <route edges="-152461#1 -152462 152348#1 152537#0 152537#1 152537#2 152537#4 152537#6 152656#4 152672#3 152679#0 152679#1 152679#2 152679#3 152679#4 152679#5 152652#0 152674#1 152674#2 -152382 -152718 -152769#3 -152769#2 -152769#1 -152769#0 -152703#0 152230 152945#0 152945#1 -152816#11 -152816#10 -152816#9 -152816#8 -152814#5 -152814#4 -152814#3 -152814#2 -152814#1 -152814#0 153443#1 153443#2 153443#3 -153442#0 153337#0 153337#1 153337#2 153337#3 153337#4 153337#5 153337#6 153337#7 -153329#12 -153329#11 -153329#9 -153329#8 -153329#7 -153329#6 -153329#5 -153329#4 -153329#3 -153329#2"/>
    </vehicle>
    <vehicle id="commercial_1-3_235" type="commercial" depart="18344" departLane="best" arrivalPos="random">
        <route edges="152291 152288 152656#1 152656#2 152656#3 152656#4 152672#3 152672#4 152283 -152291 -152763 -152292 -152802 -152293 -152796 152294 152386 -152207 152463 152312 152313#2 -152310 152319#1 152319#2 -152309 152282 152532 -152331#7 -152331#6 -152331#5 -152331#4 -152331#3 -152331#2 -152331#1 -152331#0 153639 153636#1 153638#1 153004#0 153004#1 -153460#1 152905"/>
    </vehicle>
    <vehicle id="commercial_2-1_211" type="commercial" depart="18345" departLane="best" arrivalPos="random">
        <route edges="-153447#1 -153447#0 153005#0 153005#1 153006 -152973#5 153441#0 153441#1 153441#2 152468#1 152945#0 152795 152787#2 152168 152971#0 152971#1 152971#2 152971#3 -152797#1 152810 152961#3 152961#4 -152819#3 -152819#2 -152819#1 -152819#0 -152778 152862 152864 -152891 152887 152886#0 -152163 152873"/>
    </vehicle>
    <vehicle id="commercial_1-3_55" type="commercial" depart="18350" departLane="best" arrivalPos="random">
        <route edges="-153376#10 -153376#9 -153376#8 -153376#7 -153376#6 -153376#5 -153376#4 -153376#3 -153376#2 -153376#1 -153025#3 -153025#2 -153025#1 -153025#0 -153385#2 -153385#1 -153388 152177#1 152177#2 152178 153386#0 153386#1 153386#2 152630#1 -153389#2 -153389#1 -153394#1 -153393#1 -153393#0 152738#0 152738#1 152738#2 -152736#0 -153426#0 -153435#0 -153453#6 153437#0 153437#1 153437#2 153437#3 152418#1 152415#0 152415#1 152415#2 152415#3"/>
    </vehicle>
    <vehicle id="commercial_3-1_137" type="commercial" depart="18353" departLane="best" arrivalPos="random">
        <route edges="153643 152331#0 152331#1 152331#2 152331#3 152331#4 152331#5 152331#6 152331#7 152167 -153008#3 -153008#2 -153008#1 -153008#0 -152901#1 -152901#0 152403#0 152403#1 152403#2 152940#0 152940#1 152940#2 152421#1 152309 152319#3 152319#4 152310 152313#3 -152306 152962#5 152962#6 152962#7"/>
    </vehicle>
    <vehicle id="commercial_1-3_161" type="commercial" depart="18356" departLane="best" arrivalPos="random">
        <route edges="152944 152882#1 152882#2 152879 152871 152865 152870 152937 152808 -152805 -152801 -152762 -152765 152778 152819#0 152819#1 152819#2 152819#3 152961#5 152961#1 152961#2 152961#3 -152823#2 -152823#1 -152823#0 152138#6 152138#7 -152140 152319#4 152319#1 152319#2 -152309 152282 152532 -152331#7 -152331#6 -152331#5 -152331#4 -152331#3 -152331#2 -152331#1 -152331#0 153639 153636#1 153638#1 153004#0 153004#1 -153460#1 -153460#0 -153459"/>
    </vehicle>
    <vehicle id="commercial_GW1-1_417" type="commercial" depart="18358" departLane="best" arrivalPos="random">
        <route edges="153480 152305 152929 152258 153479#0 153479#1 152303 153344 152304 -153478#26 -153478#25 -153478#24 -153478#23 -153478#22 -153478#20 -153478#19 -153478#18 -153478#17 -153478#16 -153478#15 -153478#14 -153478#13 -153478#12 -153478#11 -153478#10 153010#0 153010#1 153010#2 153010#3 153010#4 153010#5 153010#6 153010#7 152403#2 152403#3 152901#0 152901#1 152901#2 -152872#4 -152834#6 -152834#5 -152834#4 -152834#3 -152834#2 -152834#1 -152834#0 -152989#1 -152989#0 -152971#3 -152971#2 -152971#1 -152971#0 152793 152798#0 152798#1 153551#2 152827#0"/>
    </vehicle>
    <vehicle id="commercial_1-1_473" type="commercial" depart="18380" departLane="best" arrivalPos="random">
        <route edges="152939#3 152939#4 -152608#6 -152608#5 -152608#4 -152608#3 -152608#2 -152619 -152612 -152607#2 -152607#1 -152607#0 -152669#10 -152669#9 -152669#8 -152669#7 -152669#6 -152669#5 -152669#4 -152670#2 -152670#1 -152670#0 -152679#4 152678#0 152678#1 152678#2"/>
    </vehicle>
    <vehicle id="commercial_1-1_550" type="commercial" depart="18394" departLane="best" arrivalPos="random">
        <route edges="152769#0 152769#1 -152782 -152703#2 -152703#1 -152703#0 152230 152945#0 152945#1 -152816#11 -152947#2 -152947#1 -152947#0 153554#1 153554#2 152872#0 152872#1 152872#2 152872#3 152872#4 152872#5 -152901#1 -152901#0 152403#0 152403#1 152403#2 152940#0 152940#1"/>
    </vehicle>
    <vehicle id="commercial_1-3_14" type="commercial" depart="18395" departLane="best" arrivalPos="random">
        <route edges="-152779 152385 152818#0 152818#1 152818#2 152818#3 152833#0 152833#1 152833#2 152306 152313#0 152313#1 152313#2 -152310 152319#1 152319#2 -152309 152282 152532 -152331#7 -152331#6 -152331#5 -152331#4 -152331#3 -152331#2 -152331#1 -152331#0 153639 153636#1 153638#1 153004#0 153004#1 153007#0"/>
    </vehicle>
    <vehicle id="commercial_GW1-1_138" type="commercial" depart="18397" departLane="best" arrivalPos="random">
        <route edges="152527#0 152527#0-AddedOffRampEdge 152531 152281 152534 152205 152327 152204 152329#0 152329#1 152289 152857 152211 152538 152395 153643 152331#0 152331#1 152331#2 152331#3 152331#4 152331#5 152331#6 152331#7 152167 152169#0 152169#1 152400#1 152400#2 152903#0 152903#1 152990 152816#0 152816#1 152816#2 152816#3 152816#4 152816#5 152816#6 152816#7 152816#8 152816#9 152816#10 152816#11 152761 152231 152787#0 152821 152946#2 152235 152703#0 152769#0 152769#1 152769#2 152769#3 -152941#4 152548"/>
    </vehicle>
    <vehicle id="commercial_1-1_59" type="commercial" depart="18403" departLane="best" arrivalPos="random">
        <route edges="152458#1 -152457 152967#1 152320 -152617#2 -152617#1 -152617#0 152456#3 152456#4 -152455 -152224 -152170 -152607#2 -152607#1 -152607#0 -152669#10 -152669#9 -152669#8 -152669#7 -152669#6 -152669#5 -152669#4 152716 152175#0 152175#1 -152703#5 -152703#4 -152703#3 -152703#2 -152703#1 -152703#0 152230 152945#0 152795 152787#2 152946#1 152946#2 152235"/>
    </vehicle>
    <vehicle id="commercial_1-GW1_257" type="commercial" depart="18435" departLane="best" arrivalPos="random">