<?xml version="1.0" encoding="UTF-8"?>
<!-- generated on 2018-04-26 16:56:58.945108 by $Id$
  options: -n ../scenario/in/most.net.xml -b 18000 -e 43200 -p 1200 <doubleminus>random-begin <doubleminus>seed 42 <doubleminus>no-vtypes <doubleminus>ptstops ../scenario/in/add/most.busstops.add.xml <doubleminus>ptlines pt/most.buslines.add.xml -o out/most.buses.flows.xml
-->
<routes xmlns:xsi="http://www.w3.org/2001/XMLSchema-instance" xsi:noNamespaceSchemaLocation="http://sumo.dlr.de/xsd/routes_file.xsd">
    <route id="bus_M4:Train" edges="1404#13 1404#16 1404#17 1404#18 1404#19 1404#20 1404#21 836#0 -839 -931#0 -837#2" >
        <stop busStop="155472" duration="30.00" until="62.0"/> <!-- L'Eglise -->
        <stop busStop="155470" duration="30.00" until="174.0"/> <!-- La Source -->
        <stop busStop="155327" duration="30.00" until="268.0"/> <!-- Les Cigognes -->
        <stop busStop="155487" duration="30.00" until="330.0"/> <!-- Bois Joli -->
    </route>
    <route id="bus_M1:France" edges="844 -820 -1386#0 -1387#0" >
        <stop busStop="155464" duration="30.00" until="74.0"/> <!-- Parking Saint-Laurent d'Eze -->
        <stop busStop="155323" duration="30.00" until="245.0"/> <!-- Chapelle de Saint-Laurent -->
        <stop busStop="155460" duration="30.00" until="611.0"/> <!-- 155460 -->
    </route>
    <route id="bus_M1:Eze" edges="-1388 1387#1 820 -1405#0" >
        <stop busStop="155459" duration="30.00" until="38.0"/> <!-- 155459 -->
        <stop busStop="155454" duration="30.00" until="434.0"/> <!-- Chapelle de Saint-Laurent -->
        <stop busStop="155463" duration="30.00" until="577.0"/> <!-- Parking Saint-Laurent d'Eze -->
    </route>
    <route id="bus_M4:HotelVille" edges="837#2 931#0 839 -836#0 -1404#21 -1404#20 -1404#19 -1404#18 -1404#17 -1404#16 -1404#13" >
        <stop busStop="155319" duration="30.00" until="44.0"/> <!-- Bois Joli -->
        <stop busStop="155488" duration="30.00" until="101.0"/> <!-- Les Cigognes -->
        <stop busStop="155469" duration="30.00" until="214.0"/> <!-- Guillaume Apollinaire -->
        <stop busStop="155471" duration="30.00" until="305.0"/> <!-- L'Eglise -->
        <stop busStop="155473" duration="30.00" until="373.0"/> <!-- Hotel de Ville -->
    </route>
    <route id="bus_M2:France" edges="1361#1 650#0 -652#2 -655 -650#0 -1352#0 -1361#0 -1379#6 -1379#5 -1379#4 -1379#3 -1379#2 -1379#1 -1379#0 -1380#1 1385 -1387#0" >
        <stop busStop="155456" duration="30.00" until="37.0"/> <!-- La Turbie Marie -->
        <stop busStop="155460" duration="30.00" until="626.0"/> <!-- 155460 -->
    </route>
    <route id="bus_M2:Turbie" edges="-1388 -1385 1380#1 1380#2 1379#1 1379#2 1379#3 1379#4 1379#5 1379#6 1379#7 825#0" >
        <stop busStop="155459" duration="30.00" until="39.0"/> <!-- 155459 -->
        <stop busStop="155322" duration="30.00" until="499.0"/> <!-- La Turbie Marie -->
    </route>
    <route id="bus_M5:Ramingao" edges="1593 175 -465 -1285#2 -1285#1 -1285#0 -914#0" >
        <stop busStop="155432" duration="30.00" until="46.0"/> <!-- Pont de l'Union -->
        <stop busStop="155490" duration="30.00" until="140.0"/> <!-- 155490 -->
        <stop busStop="155368" duration="30.00" until="280.0"/> <!-- Le Cirta -->
        <stop busStop="155366" duration="30.00" until="344.0"/> <!-- Mairie -->
        <stop busStop="155444" duration="30.00" until="491.0"/> <!-- 1er Escalier -->
        <stop busStop="155446" duration="30.00" until="554.0"/> <!-- 2e Escalier -->
        <stop busStop="155451" duration="30.00" until="656.0"/> <!-- Ramingao -->
    </route>
    <route id="bus_M5:PontUnion" edges="914#0 914#1 1285#1 -1282#2 -1282#1 -1282#0 -1287#1 -1287#0 851#3 851#0 851#1 851#2 1287#0 1287#1 1282#0 1282#1 1282#2 1285#2 -876 -175 464" >
        <stop busStop="155450" duration="30.00" until="64.0"/> <!-- Ramingao -->
        <stop busStop="155447" duration="30.00" until="161.0"/> <!-- 2e Escalier -->
        <stop busStop="155445" duration="30.00" until="255.0"/> <!-- 1er Escalier -->
        <stop busStop="155443" duration="30.00" until="635.0"/> <!-- Massolin -->
        <stop busStop="155370" duration="30.00" until="739.0"/> <!-- Cypris -->
        <stop busStop="155369" duration="30.00" until="808.0"/> <!-- Orchidees -->
        <stop busStop="155367" duration="30.00" until="947.0"/> <!-- Victoria -->
        <stop busStop="155486" duration="30.00" until="1033.0"/> <!-- Pont de l'Union -->
    </route>
    <route id="bus_M3:Hospital" edges="825#0 825#1 825#2 825#3 825#5 825#6 825#7 825#8 306#1 306#2 306#3 223#0 223#1 223#2 223#3 223#4 223#5 223#6 223#7 223#8 -927#3 -927#2 -927#1 -927#0 -816#1 -816#0 298#0 298#1 298#2 298#3 816#0 816#1" >
        <stop busStop="155322" duration="30.00" until="37.0"/> <!-- La Turbie Marie -->
        <stop busStop="155330" duration="30.00" until="201.0"/> <!-- 155330 -->
        <stop busStop="155312" duration="30.00" until="348.0"/> <!-- 155312 -->
        <stop busStop="155311" duration="30.00" until="669.0"/> <!-- 155311 -->
        <stop busStop="155329" duration="30.00" until="804.0"/> <!-- 155329 -->
        <stop busStop="155321" duration="30.00" until="890.0"/> <!-- 155321 -->
        <stop busStop="155347" duration="30.00" until="1062.0"/> <!-- Hopital -->
    </route>
    <route id="bus_2:Jardin" edges="-676 -679 692 733#0 733#1 733#2 733#3 878#4 695 734#0 734#1 734#2 734#3 734#4 732#0 732#1 732#2 732#3 732#4 732#5 857#0 857#1 -726#2 -726#1 -726#0 691#0 691#2 691#3 691#4 691#5 -618#1 -618#0 582#1 582#2 582#3 630#1 630#2 630#3 -617#5 -617#4 -617#3 -617#2 -617#1 -617#0 111 862#0 862#1 -730#11 -730#10 -730#9 -730#8 -730#7 -730#6 -730#5 -730#4 -730#3 -730#2 813 730#1" >
        <stop busStop="155408" duration="30.00" until="40.0"/> <!-- Monaco Ville (le Rocher) -->
        <stop busStop="155410" duration="30.00" until="140.0"/> <!-- Place d'Armes (Port) -->
        <stop busStop="155336" duration="30.00" until="214.0"/> <!-- Princesse Stephanie -->
        <stop busStop="155384" duration="30.00" until="265.0"/> <!-- Stade Nautique -->
        <stop busStop="155385" duration="30.00" until="321.0"/> <!-- Princesse Antoinette -->
        <stop busStop="155386" duration="30.00" until="390.0"/> <!-- Kennedy | Ostende -->
        <stop busStop="155383" duration="30.00" until="474.0"/> <!-- Terrasses du Casino -->
        <stop busStop="155334" duration="30.00" until="648.0"/> <!-- Monte-Carlo (TAM) | Monte-Carlo (Tourisme) -->
        <stop busStop="155382" duration="30.00" until="708.0"/> <!-- Cremaillere -->
        <stop busStop="155389" duration="30.00" until="782.0"/> <!-- Roqueville -->
        <stop busStop="155339" duration="30.00" until="900.0"/> <!-- Pont Sainte-Devote -->
        <stop busStop="155411" duration="30.00" until="961.0"/> <!-- Belgique -->
        <stop busStop="155390" duration="30.00" until="1100.0"/> <!-- Moneghetti -->
        <stop busStop="155427" duration="30.00" until="1176.0"/> <!-- Rotondes -->
        <stop busStop="155341" duration="30.00" until="1227.0"/> <!-- Villa Paloma -->
        <stop busStop="155429" duration="30.00" until="1319.0"/> <!-- Jardin Exotique -->
    </route>
    <route id="bus_1:SaintRoman" edges="-676 -679 692 733#0 733#1 733#2 733#3 878#4 695 734#0 734#1 734#2 734#3 734#4 732#0 732#1 732#2 732#3 732#4 732#5 857#0 857#1 -726#2 -726#1 -726#0 691#0 -276 580 -691#2 -691#0 726#0 726#1 726#2 857#2 857#3 857#4 857#0 703#0 703#1 703#2 678 565 569#2 569#3 569#4 585#3 1481 593#0 593#1 593#2 593#3 593#4 593#5 -572#2 -572#1 -572#0 582#1 582#2 582#3 576 868 566 574 589 568 -582#8 -582#7 -582#6 -582#5 -582#4 576 868 566 574 589 568 582#9 582#10 582#11 519#1 519#2 519#3 351#1 -494#4 -494#3 -494#2 242" >
        <stop busStop="155408" duration="30.00" until="39.0"/> <!-- Monaco Ville (le Rocher) -->
        <stop busStop="155410" duration="30.00" until="177.0"/> <!-- Place d'Armes (Port) -->
        <stop busStop="155336" duration="30.00" until="248.0"/> <!-- Princesse Stephanie -->
        <stop busStop="155384" duration="30.00" until="314.0"/> <!-- Stade Nautique -->
        <stop busStop="155385" duration="30.00" until="369.0"/> <!-- Princesse Antoinette -->
        <stop busStop="155386" duration="30.00" until="437.0"/> <!-- Kennedy | Ostende -->
        <stop busStop="155387" duration="30.00" until="748.0"/> <!-- Auditorium Rainier III -->
        <stop busStop="155335" duration="30.00" until="826.0"/> <!-- Portier -->
        <stop busStop="155343" duration="30.00" until="886.0"/> <!-- Spelugues -->
        <stop busStop="155342" duration="30.00" until="963.0"/> <!-- Citronniers -->
        <stop busStop="155351" duration="30.00" until="1076.0"/> <!-- Place du Casino -->
        <stop busStop="155334" duration="30.00" until="1180.0"/> <!-- Monte-Carlo (TAM) | Monte-Carlo (Tourisme) -->
        <stop busStop="155353" duration="30.00" until="1273.0"/> <!-- Saint-Charles -->
        <stop busStop="155421" duration="30.00" until="1487.0"/> <!-- Place des Moulins -->
        <stop busStop="155419" duration="30.00" until="1564.0"/> <!-- La Rousse -->
        <stop busStop="155417" duration="30.00" until="1638.0"/> <!-- Carmes -->
        <stop busStop="155458" duration="30.00" until="1714.0"/> <!-- Saint-Roman (Bus 1) -->
    </route>
    <route id="bus_5:Larvotto" edges="816#1 816#2 -787#4 -787#3 -787#2 -787#1 -787#0 1484#3 1484#0 864#0 864#1 864#2 730#11 675 735 863#2 617#0 617#1 617#2 617#3 617#4 617#5 619 620 582#1 582#2 582#3 -583#2 -583#1 -583#0 -593#4 -593#3 -593#2 -593#1 -593#0 586 569#1 569#2 439#0 439#2 439#4 439#6 523 528 440#2 440#3 440#6 440#8 569#4 585#3 569#0 569#1 569#2 439#0 439#2 439#4 439#6 439#7 439#9" >
        <stop busStop="155347" duration="30.00" until="54.0"/> <!-- Hopital -->
        <stop busStop="155397" duration="30.00" until="149.0"/> <!-- Observatoire -->
        <stop busStop="155492" duration="30.00" until="222.0"/> <!-- Parc Princesse Antoinette -->
        <stop busStop="155398" duration="30.00" until="294.0"/> <!-- Bosio -->
        <stop busStop="155415" duration="30.00" until="388.0"/> <!-- Belgique -->
        <stop busStop="155371" duration="30.00" until="472.0"/> <!-- Pont Sainte-Devote -->
        <stop busStop="155422" duration="30.00" until="589.0"/> <!-- Roqueville -->
        <stop busStop="155334" duration="30.00" until="688.0"/> <!-- Monte-Carlo (TAM) | Monte-Carlo (Tourisme) -->
        <stop busStop="155418" duration="30.00" until="804.0"/> <!-- Place du Casino -->
        <stop busStop="155379" duration="30.00" until="917.0"/> <!-- Spelugues -->
        <stop busStop="155335" duration="30.00" until="973.0"/> <!-- Portier -->
        <stop busStop="155400" duration="30.00" until="1160.0"/> <!-- Grimaldi Forum/Villa Sauber -->
        <stop busStop="155423" duration="30.00" until="1342.0"/> <!-- Plages -->
        <stop busStop="155401" duration="30.00" until="1398.0"/> <!-- Sea Club -->
        <stop busStop="155375" duration="30.00" until="1452.0"/> <!-- Larvotto -->
    </route>
    <route id="bus_1:Monaco" edges="242 494#1 494#2 494#3 494#4 351#2 529#0 529#1 529#2 -884#0 855#0 855#1 855#2 855#3 855#4 -520#6 -520#5 -520#4 -520#3 -520#2 -531 -524#0 -519#2 -519#1 -519#0 -582#10 -582#9 -568 -589 -574 -566 -868 -576 -582#3 -582#2 -582#1 618#0 618#1 -858#5 632 580 -691#2 -691#0 726#0 726#1 726#2 857#2 857#3 736 879#1 879#2 879#3 879#4 197 205#0 163 320 81 -185 710 184 716 183 677 182 179 261 -577 -703#2 -703#1 -703#0 857#1 857#2 857#3 736 879#1 879#2 879#3 879#4 879#5 879#6 879#7 879#8 879#9 879#11 878#1 878#2 878#3 -733#3 -733#2 -733#1 -733#0 -692 777 779 778 -776 -779 -777 692 733#0 733#1 733#2 733#3 878#4 878#0 878#1 878#2 878#3 -733#3 -733#2 -733#1 -733#0 -692 679 -688 -689 690 -676" >
        <stop busStop="155458" duration="30.00" until="43.0"/> <!-- Saint-Roman (Bus 1) -->
        <stop busStop="155425" duration="30.00" until="134.0"/> <!-- Carmes -->
        <stop busStop="155416" duration="30.00" until="322.0"/> <!-- La Rousse -->
        <stop busStop="155420" duration="30.00" until="447.0"/> <!-- Place des Moulins -->
        <stop busStop="155426" duration="30.00" until="557.0"/> <!-- Saint-Charles -->
        <stop busStop="155354" duration="30.00" until="684.0"/> <!-- Monte-Carlo -->
        <stop busStop="155355" duration="30.00" until="768.0"/> <!-- Square Beaumarchais -->
        <stop busStop="155424" duration="30.00" until="982.0"/> <!-- Ostende -->
        <stop busStop="155352" duration="30.00" until="1180.0"/> <!-- Place Sainte-Devote (Gare) -->
        <stop busStop="155414" duration="30.00" until="1232.0"/> <!-- Princesse Florestine -->
        <stop busStop="155410" duration="30.00" until="1554.0"/> <!-- Place d'Armes (Port) -->
        <stop busStop="155408" duration="30.00" until="1833.0"/> <!-- Monaco Ville (le Rocher) -->
    </route>
    <route id="bus_5:Hopital" edges="439#9 360#3 360#4 360#5 360#0 360#1 440#0 440#2 440#3 440#6 440#8 569#4 585#3 1481 593#0 593#1 593#2 593#3 593#4 593#5 -572#2 -572#1 -572#0 582#1 582#2 582#3 630#1 630#2 630#3 -617#5 -617#4 -617#3 -617#2 -617#1 -617#0 111 862#0 862#1 -730#11 -864#2 -864#1 -864#0 1484#1 1484#2 787#0 787#1 787#2 787#3 787#4 787#5 -816#1 -816#0 298#0 298#1 298#2 856#0 856#1 856#2 316#1 201 211#3 17 15#0 16 887 316#0 -856#2 -856#1 -856#0 298#3 816#0 816#1" >
        <stop busStop="155375" duration="30.00" until="45.0"/> <!-- Larvotto -->
        <stop busStop="155501" duration="30.00" until="106.0"/> <!-- Sea Club -->
        <stop busStop="155372" duration="30.00" until="168.0"/> <!-- Plages -->
        <stop busStop="155400" duration="30.00" until="246.0"/> <!-- Grimaldi Forum/Villa Sauber -->
        <stop busStop="155374" duration="30.00" until="333.0"/> <!-- Portier -->
        <stop busStop="155343" duration="30.00" until="393.0"/> <!-- Spelugues -->
        <stop busStop="155342" duration="30.00" until="485.0"/> <!-- Citronniers -->
        <stop busStop="155351" duration="30.00" until="562.0"/> <!-- Place du Casino -->
        <stop busStop="155334" duration="30.00" until="658.0"/> <!-- Monte-Carlo (TAM) | Monte-Carlo (Tourisme) -->
        <stop busStop="155382" duration="30.00" until="748.0"/> <!-- Cremaillere -->
        <stop busStop="155389" duration="30.00" until="809.0"/> <!-- Roqueville -->
        <stop busStop="155339" duration="30.00" until="912.0"/> <!-- Pont Sainte-Devote -->
        <stop busStop="155495" duration="30.00" until="1005.0"/> <!-- Belgique -->
        <stop busStop="155399" duration="30.00" until="1059.0"/> <!-- Bosio -->
        <stop busStop="155491" duration="30.00" until="1121.0"/> <!-- Parc Princesse Antoinette -->
        <stop busStop="155378" duration="30.00" until="1213.0"/> <!-- Hopital -->
        <stop busStop="155348" duration="30.00" until="1493.0"/> <!-- Athanee -->
        <stop busStop="155347" duration="30.00" until="1556.0"/> <!-- Hopital -->
    </route>
    <route id="bus_4:SaintRoman" edges="1576 791#4 791#5 791#0 348 358#0 358#1 358#2 294#0 294#1 560 -790#2 -790#1 -790#0 903 902#3 902#4 893 -812#1 -1404#0 315 162 316#0 316#1 201 211#3 17 15#0 15#1 15#2 15#3 15#4 15#5 737#0 737#2 878#3 878#4 878#0 878#1 878#2 -737#2 -737#0 15#6 15#7 -17 211#4 202 205#3 -197 879#5 879#6 879#7 879#8 879#9 -741#1 -741#0 -1480#3 -1480#2 -1480#1 -1480#0 888#2 888#3 888#4 888#5 907#0 907#1 748#0 748#1 748#2 748#3 739#0 739#1 739#2 739#3 708#0 708#1 -748#0 -907#1 -907#0 -888#5 -888#4 -888#3 -888#2 -888#1 -888#0 863#0 863#1 863#2 617#0 617#1 617#2 617#3 617#4 617#5 619 620 582#1 582#2 582#3 576 868 566 574 589 568 -582#8 -582#7 -582#6 -582#5 -582#4 576 868 566 574 589 568 582#9 582#10 582#11 519#1 519#2 519#3 351#1 -494#4 -494#3 -494#2 -494#1 -242" >
        <stop busStop="155380" duration="30.00" until="44.0"/> <!-- Fontvieille - Centre Commercial -->
        <stop busStop="155394" duration="30.00" until="109.0"/> <!-- Papalins -->
        <stop busStop="155350" duration="30.00" until="166.0"/> <!-- Roseraie -->
        <stop busStop="155393" duration="30.00" until="220.0"/> <!-- Heliport -->
        <stop busStop="155494" duration="30.00" until="295.0"/> <!-- Stade Louis II -->
        <stop busStop="155480" duration="30.00" until="391.0"/> <!-- Cimetiere -->
        <stop busStop="155407" duration="30.00" until="488.0"/> <!-- Place d'Armes (Charles III) -->
        <stop busStop="155392" duration="30.00" until="1058.0"/> <!-- Castelleretto -->
        <stop busStop="155328" duration="30.00" until="1132.0"/> <!-- Louis Aureglia -->
        <stop busStop="155371" duration="30.00" until="1219.0"/> <!-- Pont Sainte-Devote -->
        <stop busStop="155422" duration="30.00" until="1344.0"/> <!-- Roqueville -->
        <stop busStop="155334" duration="30.00" until="1443.0"/> <!-- Monte-Carlo (TAM) | Monte-Carlo (Tourisme) -->
        <stop busStop="155353" duration="30.00" until="1562.0"/> <!-- Saint-Charles -->
        <stop busStop="155421" duration="30.00" until="1709.0"/> <!-- Place des Moulins -->
        <stop busStop="155419" duration="30.00" until="1781.0"/> <!-- La Rousse -->
        <stop busStop="155417" duration="30.00" until="1856.0"/> <!-- Carmes -->
        <stop busStop="155377" duration="30.00" until="1937.0"/> <!-- Saint-Roman (Bus 4) -->
    </route>
    <route id="bus_2:Monaco" edges="730#1 730#2 730#3 730#4 730#5 730#6 730#7 730#8 730#9 730#10 -864#2 -723 -730#9 -730#8 -730#7 -730#6 -730#5 -730#4 -730#3 -730#2 813 730#1 730#2 730#3 730#4 730#5 730#6 730#7 730#8 730#9 730#10 730#11 675 735 863#2 617#0 617#1 617#2 617#3 617#4 617#5 619 620 618#0 618#1 -858#5 632 580 -691#2 -691#0 726#0 726#1 726#2 857#2 857#3 736 879#1 879#2 879#3 879#4 197 205#0 163 320 81 -185 710 184 716 183 677 182 179 261 -577 -703#2 -703#1 -703#0 857#1 857#2 857#3 736 879#1 879#2 879#3 879#4 879#5 879#6 879#7 879#8 879#9 879#11 878#1 878#2 878#3 -733#3 -733#2 -733#1 -733#0 -692 679 -688 -689 690 -676" >
        <stop busStop="155429" duration="30.00" until="39.0"/> <!-- Jardin Exotique -->
        <stop busStop="155340" duration="30.00" until="373.0"/> <!-- Villa Paloma -->
        <stop busStop="155430" duration="30.00" until="536.0"/> <!-- Rotondes -->
        <stop busStop="155361" duration="30.00" until="615.0"/> <!-- Moneghetti -->
        <stop busStop="155404" duration="30.00" until="734.0"/> <!-- Belgique -->
        <stop busStop="155371" duration="30.00" until="841.0"/> <!-- Pont Sainte-Devote -->
        <stop busStop="155422" duration="30.00" until="972.0"/> <!-- Roqueville -->
        <stop busStop="155354" duration="30.00" until="1076.0"/> <!-- Monte-Carlo -->
        <stop busStop="155355" duration="30.00" until="1161.0"/> <!-- Square Beaumarchais -->
        <stop busStop="155424" duration="30.00" until="1444.0"/> <!-- Ostende -->
        <stop busStop="155352" duration="30.00" until="1662.0"/> <!-- Place Sainte-Devote (Gare) -->
        <stop busStop="155414" duration="30.00" until="1715.0"/> <!-- Princesse Florestine -->
        <stop busStop="155376" duration="30.00" until="1813.0"/> <!-- Place d'Armes (vers Monaco Ville) -->
        <stop busStop="155408" duration="30.00" until="1989.0"/> <!-- Monaco Ville (le Rocher) -->
    </route>
    <route id="bus_4:Fontvieille" edges="-242 -494#1 -494#0 488 100 239#1 103 497#1 243 494#0 494#1 494#2 494#3 494#4 351#2 529#0 529#1 529#2 -884#0 855#0 855#1 855#2 855#3 855#4 -520#6 -520#5 -520#4 -520#3 -520#2 -531 -524#0 -519#2 -519#1 -519#0 -582#10 -582#9 -568 -589 -574 -566 -868 -576 630#1 630#2 630#3 -617#5 -617#4 -617#3 -617#2 -617#1 -617#0 111 862#0 709 701#2 888#0 888#1 888#2 888#3 888#4 888#5 -711#1 724 878#2 878#3 -733#3 -733#2 -733#1 -733#0 -692 679 -688 -689 690 -676 -679 692 733#0 733#1 733#2 733#3 878#4 695 734#0 734#1 734#2 734#3 734#4 285 705#0 705#1 705#2 -367 -705#3 -705#2 -705#1 -705#0 371 188 1577 1576" >
        <stop busStop="155377" duration="30.00" until="37.0"/> <!-- Saint-Roman (Bus 4) -->
        <stop busStop="155373" duration="30.00" until="132.0"/> <!-- Varavilla -->
        <stop busStop="155455" duration="30.00" until="191.0"/> <!-- Saint-Roman -->
        <stop busStop="155425" duration="30.00" until="321.0"/> <!-- Carmes -->
        <stop busStop="155416" duration="30.00" until="508.0"/> <!-- La Rousse -->
        <stop busStop="155420" duration="30.00" until="651.0"/> <!-- Place des Moulins -->
        <stop busStop="155426" duration="30.00" until="733.0"/> <!-- Saint-Charles -->
        <stop busStop="155382" duration="30.00" until="849.0"/> <!-- Cremaillere -->
        <stop busStop="155389" duration="30.00" until="930.0"/> <!-- Roqueville -->
        <stop busStop="155339" duration="30.00" until="1017.0"/> <!-- Pont Sainte-Devote -->
        <stop busStop="155391" duration="30.00" until="1097.0"/> <!-- Louis Aureglia -->
        <stop busStop="155337" duration="30.00" until="1196.0"/> <!-- Castelleretto -->
        <stop busStop="155338" duration="30.00" until="1260.0"/> <!-- Honore II -->
        <stop busStop="155410" duration="30.00" until="1584.0"/> <!-- Place d'Armes (Port) -->
        <stop busStop="155413" duration="30.00" until="1662.0"/> <!-- Princesse Stephanie -->
        <stop busStop="155380" duration="30.00" until="1921.0"/> <!-- Fontvieille - Centre Commercial -->
    </route>
    <route id="bus_3:Otto" edges="1575 189#0 189#1 886 732#2 732#3 732#4 732#5 857#0 857#1 857#2 857#3 736 879#1 879#2 879#3 879#4 879#5 879#6 879#7 879#8 879#9 879#11 878#1 878#2 -737#2 -737#0 15#6 15#7 15#0 16 887 316#0 -856#2 -856#1 -856#0 298#3 298#0 298#1 298#2 856#0 856#1 856#2 316#1 201 211#3 17 15#0 16 887 316#0 -856#2 -856#1 -856#0 298#3 816#0 816#1 816#2 -787#4 -787#3 -787#2 -787#1 -787#0 1484#3 1484#0 864#0 864#1 864#2 -730#10 -730#9 -730#8 -730#7 -730#6 -730#5 -730#4 -730#3 -752#6 -752#5 -752#4 -752#3 -752#2 -287 752#3 752#4 752#5 752#6" >
        <stop busStop="155395" duration="30.00" until="40.0"/> <!-- Port de Fontvieille -->
        <stop busStop="155384" duration="30.00" until="125.0"/> <!-- Stade Nautique -->
        <stop busStop="155385" duration="30.00" until="180.0"/> <!-- Princesse Antoinette -->
        <stop busStop="155352" duration="30.00" until="240.0"/> <!-- Place Sainte-Devote (Gare) -->
        <stop busStop="155414" duration="30.00" until="292.0"/> <!-- Princesse Florestine -->
        <stop busStop="155406" duration="30.00" until="377.0"/> <!-- Place d'Armes (Charles III) -->
        <stop busStop="155318" duration="30.00" until="473.0"/> <!-- Cimetiere -->
        <stop busStop="155396" duration="30.00" until="597.0"/> <!-- Pasteur -->
        <stop busStop="155348" duration="30.00" until="771.0"/> <!-- Athanee -->
        <stop busStop="155347" duration="30.00" until="834.0"/> <!-- Hopital -->
        <stop busStop="155397" duration="30.00" until="905.0"/> <!-- Observatoire -->
        <stop busStop="155492" duration="30.00" until="985.0"/> <!-- Parc Princesse Antoinette -->
        <stop busStop="155398" duration="30.00" until="1046.0"/> <!-- Bosio -->
        <stop busStop="155415" duration="30.00" until="1150.0"/> <!-- Belgique -->
        <stop busStop="155411" duration="30.00" until="1205.0"/> <!-- Belgique -->
        <stop busStop="155390" duration="30.00" until="1287.0"/> <!-- Moneghetti -->
        <stop busStop="155313" duration="30.00" until="1373.0"/> <!-- Rotondes -->
        <stop busStop="155341" duration="30.00" until="1434.0"/> <!-- Villa Paloma -->
        <stop busStop="155403" duration="30.00" until="1668.0"/> <!-- Hector Otto -->
    </route>
    <route id="bus_6:Larvotto" edges="1576 791#4 791#5 791#0 348 358#0 358#1 358#2 294#0 294#1 560 -790#2 -790#1 -790#0 903 902#3 -817#1 -817#0 895#3 895#4 800#0 800#1 800#2 791#5 791#0 791#1 791#2 1575 189#0 189#1 886 732#2 732#3 732#4 732#5 857#0 857#1 -726#2 -726#1 -720 858#1 858#2 858#4 632 580 -691#2 -588#2 -588#1 564#1 686 691#0 691#2 691#3 691#4 691#5 -618#1 -618#0 582#1 582#2 582#3 -583#2 -583#1 -583#0 -593#4 -593#3 -593#2 -593#1 -593#0 586 569#1 569#2 439#0 439#2 439#4 439#6 523 528 440#2 440#3 440#6 440#8 569#4 585#3 569#0 569#1 569#2 439#0 439#2 439#4 439#6 439#7 439#9" >
        <stop busStop="155380" duration="30.00" until="46.0"/> <!-- Fontvieille - Centre Commercial -->
        <stop busStop="155394" duration="30.00" until="112.0"/> <!-- Papalins -->
        <stop busStop="155350" duration="30.00" until="181.0"/> <!-- Roseraie -->
        <stop busStop="155393" duration="30.00" until="233.0"/> <!-- Heliport -->
        <stop busStop="155494" duration="30.00" until="371.0"/> <!-- Stade Louis II -->
        <stop busStop="155500" duration="30.00" until="438.0"/> <!-- Albert II -->
        <stop busStop="155395" duration="30.00" until="500.0"/> <!-- Port de Fontvieille -->
        <stop busStop="155384" duration="30.00" until="593.0"/> <!-- Stade Nautique -->
        <stop busStop="155385" duration="30.00" until="647.0"/> <!-- Princesse Antoinette -->
        <stop busStop="155386" duration="30.00" until="715.0"/> <!-- Kennedy | Ostende -->
        <stop busStop="155383" duration="30.00" until="965.0"/> <!-- Terrasses du Casino -->
        <stop busStop="155334" duration="30.00" until="1181.0"/> <!-- Monte-Carlo (TAM) | Monte-Carlo (Tourisme) -->
        <stop busStop="155418" duration="30.00" until="1314.0"/> <!-- Place du Casino -->
        <stop busStop="155379" duration="30.00" until="1430.0"/> <!-- Spelugues -->
        <stop busStop="155335" duration="30.00" until="1482.0"/> <!-- Portier -->
        <stop busStop="155400" duration="30.00" until="1680.0"/> <!-- Grimaldi Forum/Villa Sauber -->
        <stop busStop="155423" duration="30.00" until="1855.0"/> <!-- Plages -->
        <stop busStop="155401" duration="30.00" until="1911.0"/> <!-- Sea Club -->
        <stop busStop="155375" duration="30.00" until="1966.0"/> <!-- Larvotto -->
    </route>
    <route id="bus_3:Fontvieille" edges="752#6 730#3 730#4 730#5 730#6 730#7 730#8 730#9 730#10 -864#2 -723 -730#9 -730#8 -730#7 -730#6 -730#5 -730#4 -730#3 -730#2 813 730#1 730#2 730#3 730#4 730#5 730#6 730#7 730#8 730#9 730#10 -864#2 -864#1 -864#0 1484#1 1484#2 787#0 787#1 787#2 787#3 787#4 787#5 -816#1 -816#0 298#0 298#1 298#2 856#0 856#1 856#2 316#1 201 211#3 17 15#0 15#1 15#2 15#3 15#4 15#5 737#0 737#2 878#3 -733#3 -733#2 -733#1 -733#0 -692 679 -688 -689 690 -676 -679 692 733#0 733#1 733#2 733#3 878#4 695 734#0 734#1 734#2 734#3 734#4 285 705#0 705#1 705#2 -367 -705#3 -705#2 -705#1 -705#0 371 188 1577 1576" >
        <stop busStop="155403" duration="30.00" until="41.0"/> <!-- Hector Otto -->
        <stop busStop="155340" duration="30.00" until="334.0"/> <!-- Villa Paloma -->
        <stop busStop="155428" duration="30.00" until="513.0"/> <!-- Rotondes -->
        <stop busStop="155361" duration="30.00" until="564.0"/> <!-- Moneghetti -->
        <stop busStop="155404" duration="30.00" until="676.0"/> <!-- Belgique -->
        <stop busStop="155495" duration="30.00" until="740.0"/> <!-- Belgique -->
        <stop busStop="155399" duration="30.00" until="816.0"/> <!-- Bosio -->
        <stop busStop="155491" duration="30.00" until="877.0"/> <!-- Parc Princesse Antoinette -->
        <stop busStop="155378" duration="30.00" until="971.0"/> <!-- Hopital -->
        <stop busStop="155409" duration="30.00" until="1042.0"/> <!-- Athanee -->
        <stop busStop="155346" duration="30.00" until="1123.0"/> <!-- Cimetiere -->
        <stop busStop="155407" duration="30.00" until="1260.0"/> <!-- Place d'Armes (Charles III) -->
        <stop busStop="155410" duration="30.00" until="1559.0"/> <!-- Place d'Armes (Port) -->
        <stop busStop="155413" duration="30.00" until="1634.0"/> <!-- Princesse Stephanie -->
        <stop busStop="155380" duration="30.00" until="1865.0"/> <!-- Fontvieille - Centre Commercial -->
    </route>
    <route id="bus_6:Fontvieille" edges="439#9 360#3 360#4 360#5 360#0 360#1 440#0 440#2 440#3 440#6 440#8 569#4 585#3 1481 593#0 593#1 593#2 593#3 593#4 593#5 564#0 588#1 867#0 867#1 604#1 604#2 618#1 -858#5 632 580 -691#2 -691#0 726#0 726#1 726#2 857#2 857#3 736 879#1 879#2 879#3 879#4 197 205#0 163 320 81 -185 710 184 716 183 677 182 179 261 -577 -703#2 -703#1 -703#0 857#1 857#2 857#3 736 879#1 879#2 879#3 879#4 879#5 879#6 879#7 879#8 879#9 879#11 878#1 878#2 878#3 -733#3 -733#2 -733#1 -733#0 -692 679 -688 -689 690 -676 -679 692 733#0 733#1 733#2 733#3 878#4 695 734#0 734#1 734#2 734#3 734#4 285 705#0 705#1 705#2 -367 -705#3 -705#2 -705#1 -705#0 371 188 1577 1576" >
        <stop busStop="155375" duration="30.00" until="46.0"/> <!-- Larvotto -->
        <stop busStop="155501" duration="30.00" until="108.0"/> <!-- Sea Club -->
        <stop busStop="155372" duration="30.00" until="169.0"/> <!-- Plages -->
        <stop busStop="155400" duration="30.00" until="259.0"/> <!-- Grimaldi Forum/Villa Sauber -->
        <stop busStop="155374" duration="30.00" until="331.0"/> <!-- Portier -->
        <stop busStop="155343" duration="30.00" until="419.0"/> <!-- Spelugues -->
        <stop busStop="155342" duration="30.00" until="516.0"/> <!-- Citronniers -->
        <stop busStop="155351" duration="30.00" until="608.0"/> <!-- Place du Casino -->
        <stop busStop="155354" duration="30.00" until="796.0"/> <!-- Monte-Carlo -->
        <stop busStop="155355" duration="30.00" until="886.0"/> <!-- Square Beaumarchais -->
        <stop busStop="155424" duration="30.00" until="1125.0"/> <!-- Ostende -->
        <stop busStop="155352" duration="30.00" until="1367.0"/> <!-- Place Sainte-Devote (Gare) -->
        <stop busStop="155414" duration="30.00" until="1420.0"/> <!-- Princesse Florestine -->
        <stop busStop="155410" duration="30.00" until="1731.0"/> <!-- Place d'Armes (Port) -->
        <stop busStop="155413" duration="30.00" until="1808.0"/> <!-- Princesse Stephanie -->
        <stop busStop="155380" duration="30.00" until="2038.0"/> <!-- Fontvieille - Centre Commercial -->
    </route>