<?xml version="1.0" encoding="UTF-8"?>

<!-- 
    Monaco SUMO Traffic (MoST) Scenario
    Copyright (C) 2018 
    Lara CODECA

    This program is free software: you can redistribute it and/or modify
    it under the terms of the GNU General Public License as published by
    the Free Software Foundation, either version 3 of the License, or
    (at your option) any later version.

    This program is distributed in the hope that it will be useful,
    but WITHOUT ANY WARRANTY; without even the implied warranty of
    MERCHANTABILITY or FITNESS FOR A PARTICULAR PURPOSE.  See the
    GNU General Public License for more details.

    You should have received a copy of the GNU General Public License
    along with this program.  If not, see <http://www.gnu.org/licenses/>.
-->

<routes xmlns:xsi="http://www.w3.org/2001/XMLSchema-instance" xsi:noNamespaceSchemaLocation="http://sumo.dlr.de/xsd/routes_file.xsd">
    <vehicle id="bicycle_1_574" type="bicycle" depart="18021.00" departLane="best">
        <route edges="1185#2 -595#0 588 571#1 571#2 439#0 439#2 439#4 439#6 439#7 439#9 359#3 233#0"/>
    </vehicle>
    <vehicle id="bicycle_1_87" type="bicycle" depart="18631.00" departLane="best">
        <route edges="-192 369#1"/>
    </vehicle>
    <vehicle id="bicycle_1_450" type="bicycle" depart="18785.00" departLane="best">
        <route edges="-736#2 -736#1 -736#0 -694 681 678 718"/>
    </vehicle>
    <vehicle id="bicycle_2_260" type="bicycle" depart="19071.00" departLane="best">
        <route edges="564#4 564#5 564#6 240#2 241#0"/>
    </vehicle>
    <vehicle id="bicycle_1_589" type="bicycle" depart="19078.00" departLane="best">
        <route edges="793#1 793#2 793#3 290#2 1158#0"/>
    </vehicle>
    <vehicle id="bicycle_2_418" type="bicycle" depart="19154.00" departLane="best">
        <route edges="507#0 507#1 -860#3 -860#2 -860#1 -860#0 889#0 351 -352#1"/>
    </vehicle>
    <vehicle id="bicycle_2_137" type="bicycle" depart="19394.00" departLane="best">
        <route edges="-521#3 -521#2 -521#1 -525#1 532 521#2 521#3 521#4 521#5 521#6 521#8 521#9 -860#4 -860#3 -860#2 -860#1 -860#0 865#0 865#1"/>
    </vehicle>
    <vehicle id="bicycle_2_217" type="bicycle" depart="19403.00" departLane="best">
        <route edges="1391#5 1391#6 1391#7 1391#8 1391#9 1391#10 1209 -1269#7 -1269#6 -1269#5 -1269#4 -1269#3"/>
    </vehicle>
    <vehicle id="bicycle_1_447" type="bicycle" depart="19653.00" departLane="best">
        <route edges="-790#5 -790#4 -790#3 -790#2 -790#1 -790#0 1499#3 746#0 746#1 -709#1 715#0 715#1 -1495#2 696"/>
    </vehicle>
    <vehicle id="bicycle_2_289" type="bicycle" depart="19837.00" departLane="best">
        <route edges="-1269#6 -1269#5 -1269#4 -1269#3 -1269#2 -1269#1"/>
    </vehicle>
    <vehicle id="bicycle_2_382" type="bicycle" depart="19957.00" departLane="best">
        <route edges="755#2 755#3 755#4 755#5 755#6 755#7"/>
    </vehicle>
    <vehicle id="bicycle_1_343" type="bicycle" depart="20024.00" departLane="best">
        <route edges="-861#2 -861#1 -861#0 294#3 821#0 821#1 821#2 -790#5 -790#4 -790#3 -790#2 -790#1 -790#0 1499#3 746#0 746#1 -709#1 715#0 715#1 -1495#2"/>
    </vehicle>
    <vehicle id="bicycle_1_57" type="bicycle" depart="20063.00" departLane="best">
        <route edges="178#0 178#1 -316#0 707#1 707#2 707#3 707#4 -857 705#1 705#2 680 567 571#2 439#0 439#2 439#4 439#6 439#7 439#9 359#3 359#4 359#5 237#0"/>
    </vehicle>
    <vehicle id="bicycle_1_197" type="bicycle" depart="20093.00" departLane="best">
        <route edges="-861#2 -861#1 -861#0 294#3 821#0 821#1 821#2 -790#5 -790#4 -790#3 -790#2 -790#1 -790#0 1499#3 1499#0 869#0 869#1"/>
    </vehicle>
    <vehicle id="bicycle_1_504" type="bicycle" depart="20231.00" departLane="best">
        <route edges="592#0 592#1 581#5 581#6 -585#1 -585#0 -595#4 -595#3 -595#2 -595#1 -595#0 588 254 -579 -705#2 -705#1 857 -707#4 -707#3 -707#2 -707#1"/>
    </vehicle>
    <vehicle id="bicycle_2_146" type="bicycle" depart="20629.00" departLane="best">
        <route edges="521#4 521#5 521#6 521#8 521#9 521#10 521#11 521#12 416#1 240#4 240#1 -564#6 -564#5 -564#4"/>
    </vehicle>
    <vehicle id="bicycle_2_384" type="bicycle" depart="20661.00" departLane="best">
        <route edges="1526#1 1526#2 1526#3 834#5 834#6 834#8 907#1 907#2 907#3 -822#1 -807#2 -1508"/>
    </vehicle>
    <vehicle id="bicycle_2_233" type="bicycle" depart="20672.00" departLane="best">
        <route edges="-521#8 -521#6 -521#5 -521#4 -521#3 -521#2 -521#1 -525#1 532 521#2 521#3 521#4 521#5 521#6 521#8 521#9 521#10 521#11"/>
    </vehicle>
    <vehicle id="bicycle_1_575" type="bicycle" depart="20713.00" departLane="best">
        <route edges="531 439#9 359#3 233#0"/>
    </vehicle>
    <vehicle id="bicycle_1_623" type="bicycle" depart="20759.00" departLane="best">
        <route edges="-686 -3 1206#0 1206#1 1206#2 -744#1 -744#0 -1495#3 -715#1 -715#0 709#1 -746#1"/>
    </vehicle>
    <vehicle id="bicycle_2_196" type="bicycle" depart="20858.00" departLane="best">
        <route edges="834#4 834#5 834#6 834#8 907#1 907#2 -908 793#0 793#1 793#2 793#3 -290#1 -290#0"/>
    </vehicle>
    <vehicle id="bicycle_1_199" type="bicycle" depart="20990.00" departLane="best">
        <route edges="178#1 -316#0 707#1 707#2 707#3 707#4 -857 705#1 705#2 680 567 571#2 439#0 439#2 439#4 439#6 439#7 439#9 359#3 359#4 359#5 237#0 237#1 237#2 237#3"/>
    </vehicle>
    <vehicle id="bicycle_1_476" type="bicycle" depart="21174.00" departLane="best">
        <route edges="-585#1 -585#0 -595#4 -595#3 -595#2 -595#1 -595#0 588 571#1 571#2 439#0 439#2 439#4 439#6 439#7 439#9 359#3 359#4 -233#1 360"/>
    </vehicle>
    <vehicle id="bicycle_2_73" type="bicycle" depart="21198.00" departLane="best">
        <route edges="530#2 -889#0 860#0 860#1 860#2 860#3 860#4 -521#9"/>
    </vehicle>
    <vehicle id="bicycle_1_684" type="bicycle" depart="21229.00" departLane="best">
        <route edges="-686 -3 1206#0 1206#1 1206#2 -744#1 -744#0 -1495#3 -715#1 -715#0 709#1 -746#1 -746#0 1499#0 1499#1 1499#2 790#0 790#1 790#2 790#3 790#4 -751#6 -751#5 -751#4 742#0 742#1 742#3 742#4 710#0 710#1 751#1 751#2 751#3 751#4 751#5 751#6"/>
    </vehicle>
    <vehicle id="bicycle_2_262" type="bicycle" depart="21231.00" departLane="best">
        <route edges="240#3 -416#1 -521#12 -521#11 -521#10 -860#4 -860#3 -860#2 -860#1 -860#0 889#0 351 352#0 352#1"/>
    </vehicle>
    <vehicle id="bicycle_2_333" type="bicycle" depart="21347.00" departLane="best">
        <route edges="489#4 14 1316#1 1316#2 354#0 354#1 355 237#1 237#2 237#3"/>
    </vehicle>
    <vehicle id="bicycle_2_276" type="bicycle" depart="21458.00" departLane="best">
        <route edges="1316#0 1316#1 1316#2 354#0 354#1 355 237#1"/>
    </vehicle>
    <vehicle id="bicycle_1_115" type="bicycle" depart="21549.00" departLane="best">
        <route edges="1499#2 790#0 790#1 790#2 790#3 790#4 -751#6 -751#5 -751#4 -751#3 -751#2 -751#1 -710#1 -710#0 -742#4 -742#3"/>
    </vehicle>
    <vehicle id="bicycle_1_328" type="bicycle" depart="21604.00" departLane="best">
        <route edges="-360 -233#0 359#4 359#5 359#0 359#1 440#0 440#2 516 517 439#6 439#7 439#9"/>
    </vehicle>
    <vehicle id="bicycle_2_172" type="bicycle" depart="21658.00" departLane="best">
        <route edges="493#0 189#1 489#4 14 1316#1 1316#2 354#0 354#1 354#2 359#1 440#0"/>
    </vehicle>
    <vehicle id="bicycle_2_50" type="bicycle" depart="21782.00" departLane="best">
        <route edges="-396 994#1 507#1 -860#3 -860#2 -860#1 -860#0 865#0 865#1 865#2 865#3"/>
    </vehicle>
    <vehicle id="bicycle_2_311" type="bicycle" depart="21967.00" departLane="best">
        <route edges="720 700 1499#2 1499#3 1499#0 869#0 869#1"/>
    </vehicle>
    <vehicle id="bicycle_1_691" type="bicycle" depart="22094.00" departLane="best">
        <route edges="564#4 564#5 564#6 240#2 240#3 -416#1 -521#12 -521#11 -521#10 -860#4 -860#3 -860#2 -860#1 -860#0 865#0 865#1 865#2 865#3 865#4 865#5 -502#0 -1321#5 -1321#4 -865#4 -865#3"/>
    </vehicle>
    <vehicle id="bicycle_2_479" type="bicycle" depart="22119.00" departLane="best">
        <route edges="815#1 -793#0 908 907#3 907#4"/>
    </vehicle>
    <vehicle id="bicycle_1_16" type="bicycle" depart="22179.00" departLane="best">
        <route edges="-686 -3 1206#0 1206#1 1206#2 -744#1 -744#0 -1495#3 -715#1 -715#0 709#1 -746#1 -746#0 1499#0 1499#1 1499#2 1499#3 746#0 746#1 -709#1 715#0 715#1 1495#3"/>
    </vehicle>
    <vehicle id="bicycle_2_70" type="bicycle" depart="22203.00" departLane="best">
        <route edges="-815#1 -815#0 907#2 -908 -806#1 890#0 890#1 357#1 357#2 290#0 290#1 562"/>
    </vehicle>
    <vehicle id="bicycle_2_80" type="bicycle" depart="22209.00" departLane="best">
        <route edges="564#0 564#1 564#2 564#3 564#4 564#5 564#6 240#2 240#3 -416#1 -521#12 -521#11 -521#10 -860#4 -507#1"/>
    </vehicle>
    <vehicle id="bicycle_2_74" type="bicycle" depart="22266.00" departLane="best">
        <route edges="354#1 354#2 359#1 440#0"/>
    </vehicle>
    <vehicle id="bicycle_1_572" type="bicycle" depart="22410.00" departLane="best">
        <route edges="-521#8 -521#6 -521#5 -521#4 -521#3 -521#2 -521#1 -525#1 532 521#2 521#3 521#4 521#5 521#6 521#8 521#9 -860#4 -860#3 -860#2 -860#1 -860#0 865#0 865#1 865#2 865#3 865#4 865#5 -502#0"/>
    </vehicle>
    <vehicle id="bicycle_1_341" type="bicycle" depart="22412.00" departLane="best">
        <route edges="1501 -369#0"/>
    </vehicle>
    <vehicle id="bicycle_2_115" type="bicycle" depart="22442.00" departLane="best">
        <route edges="-295 -292#0 315 816#2 907#0 907#1 907#2 907#3 907#4 898 -315 292#0"/>
    </vehicle>
    <vehicle id="bicycle_2_355" type="bicycle" depart="22456.00" departLane="best">
        <route edges="-1513 813 1273 1526#2 1526#3 834#5 834#6 834#8 907#1 907#2 907#3 -822#1 -807#2 -1508 1509#1 1509#2 1509#3 -798"/>
    </vehicle>
    <vehicle id="bicycle_2_179" type="bicycle" depart="22473.00" departLane="best">
        <route edges="-1504 1170 -493#4 -493#3 -493#2 -493#1 189#1 489#4 14 1316#1 1316#2 354#0 354#1 355 237#1 237#2 356"/>
    </vehicle>
    <vehicle id="bicycle_1_196" type="bicycle" depart="22486.00" departLane="best">
        <route edges="-790#1 -790#0 1499#3 746#0 746#1 -709#1 715#0 715#1 1495#3 744#0 744#1 1203#0 1203#1"/>
    </vehicle>
    <vehicle id="bicycle_2_218" type="bicycle" depart="22535.00" departLane="best">
        <route edges="1395#0 1395#1 1395#2 1395#3 814#1 1525#0 1525#1 1525#2 834#8 907#1 907#2"/>
    </vehicle>
    <vehicle id="bicycle_1_310" type="bicycle" depart="22594.00" departLane="best">
        <route edges="-1494#2 219 680 567 571#2 439#0 439#2 439#4 439#6 439#7 439#9 359#3 233#0"/>
    </vehicle>
    <vehicle id="bicycle_1_172" type="bicycle" depart="22664.00" departLane="best">
        <route edges="581#6 -585#1 -585#0 -595#4 -595#3 -595#2 -595#1 -595#0 588 254 -579 -705#2 -705#1 857 -707#4 -707#3 -707#2 -707#1 -707#0"/>
    </vehicle>
    <vehicle id="bicycle_1_505" type="bicycle" depart="22690.00" departLane="best">
        <route edges="521#11 521#12 416#1 240#4 240#1 240#2 240#3 -416#1 -521#12 -521#11 -521#10 -860#4 -860#3 -860#2 -860#1 -860#0 865#0 865#1 865#2 865#3 865#4 -1321#3"/>
    </vehicle>
    <vehicle id="bicycle_1_301" type="bicycle" depart="22724.00" departLane="best">
        <route edges="-786 805 1216#0 1216#1 1221#1 1221#2"/>
    </vehicle>
    <vehicle id="bicycle_2_162" type="bicycle" depart="22829.00" departLane="best">
        <route edges="388 1269#1 1269#2 1269#3 -389"/>
    </vehicle>
    <vehicle id="bicycle_2_109" type="bicycle" depart="22848.00" departLane="best">
        <route edges="-352#0 -351 -889#0 865#0 865#1 865#2 865#3 865#4 865#5 -502#0 -1321#5"/>
    </vehicle>
    <vehicle id="bicycle_1_38" type="bicycle" depart="22903.00" departLane="best">
        <route edges="-869#1 -869#0 1499#1 1499#2 1499#3 746#0 746#1 -709#1 715#0 715#1 1495#3 744#0 744#1 1203#0 1203#1"/>
    </vehicle>
    <vehicle id="bicycle_1_24" type="bicycle" depart="22909.00" departLane="best">
        <route edges="1499#3 746#0 746#1 -709#1 715#0 715#1 1495#3 744#0 744#1 1203#0 1203#1"/>
    </vehicle>
    <vehicle id="bicycle_1_409" type="bicycle" depart="22933.00" departLane="best">
        <route edges="-685#3 -685#2"/>
    </vehicle>
    <vehicle id="bicycle_2_466" type="bicycle" depart="22949.00" departLane="best">
        <route edges="-292#0 315 816#2 907#0 907#1 907#2 -908 -806#1 890#0 1181#1 -288#1"/>
    </vehicle>
    <vehicle id="bicycle_1_655" type="bicycle" depart="22975.00" departLane="best">
        <route edges="-316#0 707#1 747 -716#0"/>
    </vehicle>
    <vehicle id="bicycle_2_159" type="bicycle" depart="22976.00" departLane="best">
        <route edges="-489#4 -489#3 -489#2 -894#1 -894#0 489#1 489#2 489#3 489#4 14 1316#1 1316#2 354#0 354#1 355"/>
    </vehicle>
    <vehicle id="bicycle_2_331" type="bicycle" depart="23077.00" departLane="best">
        <route edges="489#2 489#3 489#4 14 1316#1 1316#2 354#0 354#1 354#2 359#1 359#2 359#3 359#4 359#5"/>
    </vehicle>
    <vehicle id="bicycle_2_86" type="bicycle" depart="23085.00" departLane="best">
        <route edges="-1435#0 -1321#5 -1321#4 -865#4 -865#3 -865#2 -865#1 -865#0 889#0 351 -352#1 -352#0 -351 -889#0 865#0 865#1 865#2 865#3 865#4"/>
    </vehicle>
    <vehicle id="bicycle_1_644" type="bicycle" depart="23127.00" departLane="best">
        <route edges="-736#1 -736#0 -694 681 678 718 722 -725 1163#0 1163#2"/>
    </vehicle>
    <vehicle id="bicycle_1_403" type="bicycle" depart="23172.00" departLane="best">
        <route edges="-790#1 -790#0 1499#3 1499#0 1499#1 1499#2 790#0 790#1 790#2 790#3 790#4 -751#6 -751#5 -751#4 742#0 742#1 742#3 742#4 710#0 710#1 751#1 751#2 751#3 751#4 751#5"/>
    </vehicle>
    <vehicle id="bicycle_1_11" type="bicycle" depart="23185.00" departLane="best">
        <route edges="1503 -192 -1501"/>
    </vehicle>
    <vehicle id="bicycle_1_377" type="bicycle" depart="23223.00" departLane="best">
        <route edges="-686 -3 1206#0 1206#1 1206#2 -744#1 -744#0 -1495#3 -715#1 -715#0 709#1 -746#1 -746#0"/>
    </vehicle>
    <vehicle id="bicycle_1_291" type="bicycle" depart="23272.00" departLane="best">
        <route edges="233#1 359#5 359#0 359#1 359#2 359#3"/>
    </vehicle>
    <vehicle id="bicycle_2_464" type="bicycle" depart="23311.00" departLane="best">
        <route edges="865#3 865#4 865#5 -502#0 -1321#5 -1321#4 -865#4 -865#3 -865#2 -865#1 -865#0 860#0 860#1 860#2 860#3 -507#1"/>
    </vehicle>
    <vehicle id="bicycle_1_414" type="bicycle" depart="23320.00" departLane="best">
        <route edges="1503 -192 369#1"/>
    </vehicle>
    <vehicle id="bicycle_2_438" type="bicycle" depart="23321.00" departLane="best">
        <route edges="1316#2 354#0 354#1 354#2 359#1 359#2 359#3 359#4 359#5 359#0"/>
    </vehicle>
    <vehicle id="bicycle_1_556" type="bicycle" depart="23383.00" departLane="best">
        <route edges="-686 -3 1206#0 1206#1 1206#2 -744#1 -744#0 -1495#3 -715#1 -715#0 709#1 -746#1 -746#0 1499#0 1499#1 1499#2 790#0 790#1 790#2 790#3 790#4 -751#6 -751#5 -751#4 742#0 742#1 742#3 742#4 710#0 710#1 751#1 751#2 751#3 751#4 751#5 751#6"/>
    </vehicle>
    <vehicle id="bicycle_2_343" type="bicycle" depart="23446.00" departLane="best">
        <route edges="-865#1 -865#0 860#0 860#1 860#2 860#3 860#4 -521#9 -521#8 -521#6 -521#5 -521#4 -521#3 -521#2 -532 525#1 -521#0"/>
    </vehicle>
    <vehicle id="bicycle_1_480" type="bicycle" depart="23545.00" departLane="best">
        <route edges="-790#2 -790#1 -790#0 1499#3 1499#0 1499#1 1499#2 790#0 790#1 790#2 790#3 790#4 -751#6 -751#5 -751#4 -751#3 -751#2 -751#1 -710#1 -710#0 -742#4"/>
    </vehicle>
    <vehicle id="bicycle_1_83" type="bicycle" depart="23580.00" departLane="best">
        <route edges="-192 369#1"/>
    </vehicle>
    <vehicle id="bicycle_1_487" type="bicycle" depart="23594.00" departLane="best">
        <route edges="790#1 790#2 790#3 790#4 -751#6 -751#5 -751#4 742#0 742#1 742#3 742#4 710#0 710#1 751#1 751#2 751#3 751#4 751#5 751#6 -790#4 -790#3 -790#2 -790#1 -790#0 1499#3 746#0 746#1 -709#1 715#0 715#1 1495#3 744#0 744#1 1203#0 1203#1"/>
    </vehicle>
    <vehicle id="bicycle_1_632" type="bicycle" depart="23686.00" departLane="best">
        <route edges="-742#0 751#4 751#5 751#6 -790#4 -790#3 -790#2 -790#1 -790#0 1499#3 746#0 746#1 -709#1 715#0 715#1 1495#3 744#0 744#1 1203#0 1203#1"/>
    </vehicle>
    <vehicle id="bicycle_1_690" type="bicycle" depart="23711.00" departLane="best">
        <route edges="-595#0 588 571#1 571#2 571#3 571#4"/>
    </vehicle>
    <vehicle id="bicycle_1_210" type="bicycle" depart="23715.00" departLane="best">
        <route edges="-686 -3 1206#0 1206#1 1206#2 -744#1 -744#0 -1495#3 -1495#2 -1495#1 -1495#0"/>
    </vehicle>
    <vehicle id="bicycle_2_441" type="bicycle" depart="23722.00" departLane="best">
        <route edges="-521#4 -521#3 -521#2 -521#1 -525#1 532 521#2 521#3 521#4 521#5 521#6 521#8 521#9 -860#4 -507#1"/>
    </vehicle>
    <vehicle id="bicycle_1_545" type="bicycle" depart="23758.00" departLane="best">
        <route edges="-869#1 -869#0 1499#1 1499#2 1499#3 746#0 746#1 -709#1 715#0 715#1 -1495#2 696"/>
    </vehicle>
    <vehicle id="bicycle_2_20" type="bicycle" depart="23758.00" departLane="best">
        <route edges="1388 749#1 749#2 -755#6 -755#5 -755#4 -755#3 -755#2"/>
    </vehicle>
    <vehicle id="bicycle_1_227" type="bicycle" depart="23864.00" departLane="best">
        <route edges="742#1 742#3 742#4 710#0 710#1 751#1 751#2 751#3 751#4 751#5 751#6 -790#4 -790#3 -790#2 -790#1 -790#0 1499#3 746#0 746#1 -709#1 715#0 715#1 1495#3 744#0 744#1 1203#0 1203#1"/>
    </vehicle>
    <vehicle id="bicycle_2_248" type="bicycle" depart="23923.00" departLane="best">
        <route edges="-521#3 -521#2 -521#1 -525#1 532 521#2 521#3 521#4"/>
    </vehicle>
    <vehicle id="bicycle_2_292" type="bicycle" depart="24062.00" departLane="best">
        <route edges="-521#10 -860#4 -860#3 -860#2 -860#1 -860#0 865#0 865#1 865#2 865#3 865#4 1321#4"/>
    </vehicle>
    <vehicle id="bicycle_1_633" type="bicycle" depart="24225.00" departLane="best">
        <route edges="-686 -3 1206#0 1206#1 1206#2 -744#1 -744#0 -1495#3 -715#1 -715#0"/>
    </vehicle>
    <vehicle id="bicycle_1_3" type="bicycle" depart="24257.00" departLane="best">
        <route edges="564#3 564#4 564#5 564#6 240#2 240#3 -416#1 -521#12 -521#11 -521#10 -860#4 -860#3 -860#2 -860#1 -860#0 865#0 865#1 865#2 865#3 865#4 865#5 -502#0 -1321#5 -1321#4 -865#4 -865#3 -865#2 -865#1"/>
    </vehicle>
    <vehicle id="bicycle_2_413" type="bicycle" depart="24419.00" departLane="best">
        <route edges="-865#2 -865#1 -865#0 860#0 860#1 860#2 860#3 860#4 -521#9 -521#8 -521#6 -521#5 -521#4 -521#3 -521#2 -532 -525#0"/>
    </vehicle>
    <vehicle id="bicycle_1_490" type="bicycle" depart="24521.00" departLane="best">
        <route edges="1499#0 1499#1 1499#2 790#0 790#1 790#2 790#3 790#4 790#5 790#6 -821#1 -821#0 294#0 294#1 294#2 294#3 821#0 821#1 821#2"/>
    </vehicle>
    <vehicle id="bicycle_1_494" type="bicycle" depart="24540.00" departLane="best">
        <route edges="521#8 521#9 521#10 521#11 521#12 416#1 240#4 240#1 240#2 240#3"/>
    </vehicle>
    <vehicle id="bicycle_1_244" type="bicycle" depart="24555.00" departLane="best">
        <route edges="-707#2 -707#1 316#0 316#1 273#0 269"/>
    </vehicle>
    <vehicle id="bicycle_2_348" type="bicycle" depart="24568.00" departLane="best">
        <route edges="-521#12 -521#11 -521#10 -860#4 -860#3 -860#2 -860#1 -860#0 865#0 865#1 865#2 865#3 865#4 1321#4 1321#5 1321#6 502#1 502#2"/>
    </vehicle>
    <vehicle id="bicycle_1_273" type="bicycle" depart="24580.00" departLane="best">
        <route edges="531 439#9 359#3 359#4 359#5 359#0 359#1 440#0 440#2 440#3 440#6 -575#1 589"/>
    </vehicle>
    <vehicle id="bicycle_2_387" type="bicycle" depart="24588.00" departLane="best">
        <route edges="814#1 1525#0 1525#1 1525#2 834#8 907#1 907#2 -908 793#0 793#1 793#2 793#3 -290#1"/>
    </vehicle>
    <vehicle id="bicycle_2_15" type="bicycle" depart="24600.00" departLane="best">
        <route edges="394#5 611#1 603#1 603#2 603#3"/>
    </vehicle>
    <vehicle id="bicycle_1_92" type="bicycle" depart="24658.00" departLane="best">
        <route edges="581#5 581#6 -585#1 -585#0 -595#4 -595#3 -595#2"/>
    </vehicle>
    <vehicle id="bicycle_1_386" type="bicycle" depart="24660.00" departLane="best">
        <route edges="-751#4 742#0 742#1 742#3 742#4 710#0 710#1 751#1 751#2 751#3 751#4 751#5 751#6 -790#4 -790#3 -790#2 -790#1 -790#0 1499#3 746#0 746#1 -709#1 715#0 715#1 1495#3 744#0 744#1 1203#0 1203#1"/>
    </vehicle>
    <vehicle id="bicycle_1_614" type="bicycle" depart="24675.00" departLane="best">
        <route edges="700 1499#2 790#0 790#1 790#2 790#3 790#4 -751#6 -751#5 -751#4 742#0 742#1 742#3 742#4 710#0 710#1 751#1 751#2 751#3"/>
    </vehicle>
    <vehicle id="bicycle_1_631" type="bicycle" depart="24695.00" departLane="best">
        <route edges="-521#4 -521#3 -521#2 -521#1 -525#1 532 521#2 521#3 521#4 521#5 521#6 521#8 521#9 -860#4 -860#3 -860#2 -860#1 -860#0 865#0 865#1 865#2 865#3 865#4 1321#4 1321#5 1435#0"/>
    </vehicle>
    <vehicle id="bicycle_2_171" type="bicycle" depart="24772.00" departLane="best">
        <route edges="-894#1 -894#0 489#1 489#2 489#3 489#4 14 1316#1 1316#2 354#0 354#1 354#2 359#1 359#2"/>
    </vehicle>
    <vehicle id="bicycle_1_336" type="bicycle" depart="24873.00" departLane="best">
        <route edges="368#0 368#1 368#2 368#3"/>
    </vehicle>
    <vehicle id="bicycle_2_323" type="bicycle" depart="24884.00" departLane="best">
        <route edges="-834#6 -834#5 -834#4 -834#3 -834#2 -834#1 -834#0 937#0 937#1 834#0 834#1 834#2 834#3 834#4 834#5 834#6 834#8 907#1 907#2 907#3 -822#1 -807#2 -807#1 -807#0"/>
    </vehicle>
    <vehicle id="bicycle_1_311" type="bicycle" depart="24888.00" departLane="best">
        <route edges="-1435#0 -1321#5 -1321#4 -865#4 -865#3 -865#2 -865#1 -865#0 889#0 351 -352#1 -352#0 -351 -889#0 865#0 865#1 865#2 865#3 865#4"/>
    </vehicle>
    <vehicle id="bicycle_1_555" type="bicycle" depart="24924.00" departLane="best">
        <route edges="-686 -3 1206#0 1206#1 1206#2 -744#1 -744#0 -1495#3 -715#1 -715#0 709#1"/>
    </vehicle>
    <vehicle id="bicycle_1_601" type="bicycle" depart="24940.00" departLane="best">
        <route edges="1499#1 1499#2 1499#3 746#0 746#1 -709#1 715#0 715#1 1495#3 744#0 744#1 1203#0 1203#1"/>
    </vehicle>
    <vehicle id="bicycle_2_301" type="bicycle" depart="24967.00" departLane="best">
        <route edges="994#0 994#1 507#1 -860#3 -860#2 -860#1 -860#0 889#0 351 -352#1"/>
    </vehicle>
    <vehicle id="bicycle_1_491" type="bicycle" depart="24990.00" departLane="best">
        <route edges="-192 369#1"/>
    </vehicle>
    <vehicle id="bicycle_2_322" type="bicycle" depart="24990.00" departLane="best">
        <route edges="755#0 755#1 755#2 -283"/>
    </vehicle>
    <vehicle id="bicycle_2_412" type="bicycle" depart="24999.00" departLane="best">
        <route edges="1407#4 1404#2 1404#3 1404#4 832 1484#0 1484#1 1241#0 1241#1 -1513 813 1273 1526#2 1526#3 834#5 834#6 834#8 907#1 907#2 907#3 -822#1 -822#0"/>
    </vehicle>
    <vehicle id="bicycle_1_580" type="bicycle" depart="25018.00" departLane="best">
        <route edges="-869#1 -869#0 1499#1 1499#2 1499#3 746#0 746#1 -709#1 715#0 715#1 1495#3 744#0 744#1 1203#0 1203#1"/>
    </vehicle>
    <vehicle id="bicycle_2_228" type="bicycle" depart="25028.00" departLane="best">
        <route edges="-821#0 294#0 294#1 -936#7"/>
    </vehicle>
    <vehicle id="bicycle_2_57" type="bicycle" depart="25046.00" departLane="best">
        <route edges="1261#1 1261#2 1261#3 1261#4 1261#5 1261#6 1261#7 1261#8 1261#9 1261#10 1261#11 1261#12 -1269#7 -1269#6 -1269#5 -1269#4"/>
    </vehicle>
    <vehicle id="bicycle_1_435" type="bicycle" depart="25050.00" departLane="best">
        <route edges="581#2 581#3 581#4 581#5 581#6 -585#1 -585#0 595#5 566#0"/>
    </vehicle>
    <vehicle id="bicycle_2_415" type="bicycle" depart="25059.00" departLane="best">
        <route edges="489#2 489#3 489#4 14 1316#1 1316#2 354#0 354#1 354#2 359#1 440#0 440#2 516 517"/>
    </vehicle>
    <vehicle id="bicycle_1_659" type="bicycle" depart="25068.00" departLane="best">
        <route edges="-869#0 1499#1 1499#2 1499#3 1499#0 869#0 869#1 869#2"/>
    </vehicle>
    <vehicle id="bicycle_2_174" type="bicycle" depart="25074.00" departLane="best">
        <route edges="-521#2 -521#1 -525#1 532 521#2 521#3 521#4 521#5 521#6 521#8 521#9 521#10 521#11 521#12 416#1 240#4 240#1 -564#6 -564#5 -564#4 -564#3 -564#2"/>
    </vehicle>
    <vehicle id="bicycle_2_169" type="bicycle" depart="25099.00" departLane="best">
        <route edges="1305#0 1305#1 1423#4 1423#5 1423#6 1423#7"/>
    </vehicle>
    <vehicle id="bicycle_2_154" type="bicycle" depart="25156.00" departLane="best">
        <route edges="-515 525#0 532 521#2 521#3 521#4 521#5 521#6 521#8 521#9 -860#4 -860#3 -860#2 -860#1 -860#0 865#0 865#1 865#2 865#3 865#4 1321#4 1321#5 1321#6"/>
    </vehicle>
    <vehicle id="bicycle_1_415" type="bicycle" depart="25188.00" departLane="best">
        <route edges="-195 -369#0"/>
    </vehicle>
    <vehicle id="bicycle_2_309" type="bicycle" depart="25191.00" departLane="best">
        <route edges="819 1395#2 1395#3 814#1 1525#0 1525#1 1525#2 834#8 907#1 907#2 907#3 -822#1 -807#2 -1508 1509#1 1509#2 1509#3 1509#4"/>
    </vehicle>
    <vehicle id="bicycle_1_606" type="bicycle" depart="25255.00" departLane="best">
        <route edges="1 315 816#2 907#0 907#1 907#2 -908 793#0 793#1 793#2 289#0 289#1 -289#4 287"/>
    </vehicle>
    <vehicle id="bicycle_1_681" type="bicycle" depart="25289.00" departLane="best">
        <route edges="407 787 1229#1 1229#2 -408 -786 805 1216#0 1216#1 1221#1"/>
    </vehicle>
    <vehicle id="bicycle_1_313" type="bicycle" depart="25330.00" departLane="best">
        <route edges="865#2 865#3 865#4 865#5 -502#0 -1321#5 -1321#4 -865#4 -865#3 -865#2 -865#1 -865#0 889#0 889#1 -530#1"/>
    </vehicle>
    <vehicle id="bicycle_1_425" type="bicycle" depart="25367.00" departLane="best">
        <route edges="1216#1 1221#1"/>
    </vehicle>
    <vehicle id="bicycle_1_347" type="bicycle" depart="25438.00" departLane="best">
        <route edges="-195 -369#0"/>
    </vehicle>
    <vehicle id="bicycle_1_695" type="bicycle" depart="25456.00" departLane="best">
        <route edges="-686 -3 1206#0 1206#1 1206#2 -744#1 -744#0 -1495#3 -715#1 -715#0 709#1 -746#1 -746#0 1499#0 1499#1 1499#2 790#0 790#1 790#2 790#3 790#4 790#5 790#6 -821#1 -821#0 294#0"/>
    </vehicle>
    <vehicle id="bicycle_1_677" type="bicycle" depart="25640.00" departLane="best">
        <route edges="564#1 564#2 564#3 564#4 564#5 564#6 240#2 240#3 -416#1 -521#12 -521#11 -521#10 -521#9 -521#8 -521#6 -521#5 -521#4 -521#3 -521#2"/>
    </vehicle>
    <vehicle id="bicycle_2_227" type="bicycle" depart="25659.00" departLane="best">
        <route edges="507#0 507#1 860#4 521#10 521#11 521#12 416#1 240#4 240#1 -564#6 -564#5 -564#4 -564#3 -564#2 -564#1 -564#0 1182#0 1182#1 1182#2"/>
    </vehicle>
    <vehicle id="bicycle_2_13" type="bicycle" depart="25700.00" departLane="best">
        <route edges="-815#0 907#2 -908 793#0 793#1 793#2 793#3"/>
    </vehicle>
    <vehicle id="bicycle_1_47" type="bicycle" depart="25704.00" departLane="best">
        <route edges="-710#0 -742#4 -742#3 -742#1 -742#0 751#4 751#5 751#6 -790#4 -790#3 -790#2 -790#1"/>
    </vehicle>
    <vehicle id="bicycle_1_190" type="bicycle" depart="25718.00" departLane="best">
        <route edges="-595#4 -595#3 -595#2 -595#1 -595#0 588 571#1"/>
    </vehicle>
    <vehicle id="bicycle_1_33" type="bicycle" depart="25752.00" departLane="best">
        <route edges="-195 -369#0"/>
    </vehicle>
    <vehicle id="bicycle_2_306" type="bicycle" depart="25757.00" departLane="best">
        <route edges="564#3 564#4 564#5 1339#0"/>
    </vehicle>
    <vehicle id="bicycle_2_215" type="bicycle" depart="25763.00" departLane="best">
        <route edges="-521#11 -521#10 -860#4 -860#3 -860#2 -860#1 -860#0 865#0 865#1 865#2 865#3 865#4 -1321#3 -1321#2 -1321#1 -1321#0"/>
    </vehicle>
    <vehicle id="bicycle_2_263" type="bicycle" depart="25915.00" departLane="best">
        <route edges="865#0 865#1 865#2 865#3 865#4 865#5 -502#0 -1321#5 -1321#4 -865#4 -865#3 -865#2 -865#1 -865#0 860#0 860#1 860#2 860#3 860#4 521#10 521#11 521#12 416#1 240#4 240#1 -564#6 -564#5 -564#4 -564#3 -564#2 -564#1 -564#0 1182#0 1182#1 1182#2 576 591"/>
    </vehicle>
    <vehicle id="bicycle_2_410" type="bicycle" depart="25970.00" departLane="best">
        <route edges="189#0 189#1 489#4 14 1316#1 1316#2 354#0 354#1 355 237#1 237#2"/>
    </vehicle>
    <vehicle id="bicycle_1_63" type="bicycle" depart="25983.00" departLane="best">
        <route edges="1184#1 -606#1 -606#0 -590#0 -566#0 -595#5 -595#4 -595#3 -595#2 -595#1 -595#0 588 254 -579 -705#2 -705#1 857 -707#4 -707#3 -707#2 -707#1 -707#0"/>
    </vehicle>
    <vehicle id="bicycle_1_34" type="bicycle" depart="25984.00" departLane="best">
        <route edges="-912#2 751#0 751#1 751#2 751#3 751#4 751#5 751#6 790#5 790#6 -821#1 -821#0 294#0 294#1 294#2 861#0 861#1 861#2"/>
    </vehicle>
    <vehicle id="bicycle_2_134" type="bicycle" depart="25990.00" departLane="best">
        <route edges="860#4 521#10 -523"/>
    </vehicle>
    <vehicle id="bicycle_2_392" type="bicycle" depart="26000.00" departLane="best">
        <route edges="-793#0 908 907#3 907#4 907#0 907#1 907#2 -908 793#0 793#1 793#2 289#0 289#1 -289#4 287 289#3"/>
    </vehicle>
    <vehicle id="bicycle_2_5" type="bicycle" depart="26075.00" departLane="best">
        <route edges="-894#1 -894#0 489#1 489#2 489#3 489#4 14 1316#1 1316#2 354#0 354#1 354#2 359#1 440#0 440#2"/>
    </vehicle>
    <vehicle id="bicycle_1_69" type="bicycle" depart="26125.00" departLane="best">