<?xml version="1.0" encoding="UTF-8"?>

<!--
    Monaco SUMO Traffic (MoST) Scenario
    Copyright (C) 2019
    Lara CODECA

    This program is free software: you can redistribute it and/or modify
    it under the terms of the GNU General Public License as published by
    the Free Software Foundation, either version 3 of the License, or
    (at your option) any later version.

    This program is distributed in the hope that it will be useful,
    but WITHOUT ANY WARRANTY; without even the implied warranty of
    MERCHANTABILITY or FITNESS FOR A PARTICULAR PURPOSE.  See the
    GNU General Public License for more details.

    You should have received a copy of the GNU General Public License
    along with this program.  If not, see <http://www.gnu.org/licenses/>.
-->

<routes xmlns:xsi="http://www.w3.org/2001/XMLSchema-instance" xsi:noNamespaceSchemaLocation="http://sumo.dlr.de/xsd/routes_file.xsd"> 
    <vehicle id="commercial_1-2_172" type="commercial" depart="18006" departLane="best" arrivalPos="random">
        <route edges="-152648#6 -152648#5 -152648#4 -152648#3 -152648#2 -152648#1 -152648#0 152647#1 152647#2 153405#0 153405#1 153405#2 153405#3 153406#0 153406#1 153406#2 152940 152684 152174#1 -152701#5 -152701#4 -152701#3 -152701#2 -152701#1 -152701#0 152229 152943#0 152793 152785#2 152167 152969#0 152969#1 152969#2 152969#3 -152795#1 152824#0 152824#1 152137#7 152137#0 152138 152968 -152270 -152418 -152958 153476#1 153476#2 153476#3 153476#5 153476#6 153476#7 153476#8 153476#9 153476#10 153476#11 153476#12 153476#13 153476#14 153476#15 153476#16"/>
    </vehicle>
    <vehicle id="commercial_GW1-1_68" type="commercial" depart="18007" departLane="best" arrivalPos="random">
        <route edges="153478 152304 152927 152257 153477#0 153477#1 152302 153342 152303 -153476#26 -153476#25 -153476#24 -153476#23 -153476#22 -153476#20 -153476#19 -153476#18 -153476#17 -153476#16 -153476#15 -153476#14 -153476#13 -153476#12 -153476#11 -153476#10 153008#0 153008#1 153008#2 153008#3 153008#4 153008#5 153008#6 153008#7 152402#2 152402#3 152899#0 152899#1 152899#2 -152870#4 -152870#3 -152870#2 -152870#1 -152870#0 153552#3 153552#0 152945#0 152945#1 152945#2 152814#11 152759 152230 152785#0 152819 152944#2 152234 152701#0 152701#1 152701#2 -152706#3 -152706#2 -152706#1 -152706#0 -152999 -152997 -153413#16 -153413#15 -153413#14 -153413#13 -153413#12 -153413#11 -153413#10 -153413#9 -153413#8 -153413#7 -153413#6 -153413#5 -153413#4 -153413#3 -153413#1 -153413#0 153399#0 -152996#8 -152996#7 -152996#6 -152996#5 -152996#4 -152996#3"/>
    </vehicle>
    <vehicle id="commercial_1-GW2_223" type="commercial" depart="18008" departLane="best" arrivalPos="random">
        <route edges="-152939#2 -152939#1 -152939#0 -152810#0 152775#0 152775#2 152775#3 152775#4 152775#5 -152702#1 -152702#0 152667#1 152667#2 152667#3 152667#4 152667#5 152667#6 152667#7 152667#8 152667#9 152667#10 152667#11 152605#1 152605#2 152169 152223 152453 152454#1 -152582#4 -152582#3 -152582#2 -152582#1 -152582#0 152576 152219 153365#0 153365#1 153365#3 153365#4 153323#0 153323#1 153323#2 153323#3 153323#4 153359#0 153359#1 153354#0 153354#1 153354#2 153357#2 -152957 -152283 152554"/>
    </vehicle>
    <vehicle id="commercial_1-GW1_159" type="commercial" depart="18013" departLane="best" arrivalPos="random">
        <route edges="152959#2 152959#3 -152821#2 -152821#1 -152821#0 152137#6 152137#7 152137#0 152138 152968 -152270 -152418 -152958 153476#1 153476#2 153476#3 153476#5 153476#6 153476#7 153476#8 153476#9 153476#10 153476#11 153476#12 153476#13 153476#14 153476#15 153476#16 153476#17 153476#18 153476#19 153476#20 153476#22 153476#23 153476#24 153476#25 153476#26 -152303 -153342 -152302 -153477#1 -153477#0 -152257 -152927 -152304 -153478"/>
    </vehicle>
    <vehicle id="commercial_2-1_305" type="commercial" depart="18015" departLane="best" arrivalPos="random">
        <route edges="152686 152542 152647#0 152647#1 152647#2 153405#0 153405#1 153405#2 153405#3 153406#0 153406#1 153406#2 152940 152684 152174#1 -152701#5 -152701#4 -152701#3 -152701#2 -152701#1 -152701#0 152229 152943#0 152943#1 -152814#11 -152814#10 -152814#9 -152814#8 -152814#7 -152814#6 -152814#5 -152814#4 -152814#3 -152836#6 -152836#5 -152836#4 -152836#3 -152836#2 -152836#1 -152836#0 -153444#4 152470"/>
    </vehicle>
    <vehicle id="commercial_3-1_290" type="commercial" depart="18019" departLane="best" arrivalPos="random">
        <route edges="-153477#1 -153477#0 -152257 -152927 -152304 -153478 153478 152304 152927 152257 153477#0 153477#1 152302 153342 152303 -153476#26 -153476#25 -153476#24 -153476#23 -153476#22 -153476#20 -153476#19 -153476#18 -153476#17 -153476#16 -153476#15 -153476#14 -153476#13 -153476#12 -153476#11 -153476#10 -153476#9 -153476#8 -153476#7 -153476#6 -153476#5 -153476#3 -153476#2 -153476#1 -153476#0 152418 152270 152419#0 152419#1 152308 152318#3 152318#4 152309 152312#3 -152305 -152831#2 -152831#1 -152831#0 152816#4 152816#5 -152810#2 -152810#1 -152810#0 152775#0 -152672#2 -152672#1 -152650#0 -152677#5 -152677#4"/>
    </vehicle>
    <vehicle id="commercial_1-3_310" type="commercial" depart="18033" departLane="best" arrivalPos="random">
        <route edges="152996#2 152996#3 152996#4 152996#5 152996#6 152996#7 152996#8 -153399#0 152649#0 152649#1 152649#2 152649#3 152649#4 152649#5 153406#0 153406#1 153406#2 152940 152684 152174#1 -152701#5 -152701#4 -152701#3 -152701#2 -152701#1 -152701#0 152229 152943#0 152943#1 -152814#11 -152814#10 -152814#9 -152814#8 -152814#7 -152814#6 -152814#5 -152814#4 -152814#3 -152814#2 -152814#1 -152814#0 152989 -152901#1 -152901#0 152399#3 152399#0 -152168#1 -152168#0 -152166 -152330#5 -152330#4 -152330#3 -152330#2 -152330#1 -152330#0 153637 153634#1 153636#1 153002#0 153002#1 -153458#1 -153458#0"/>
    </vehicle>
    <vehicle id="commercial_3-1_245" type="commercial" depart="18063" departLane="best" arrivalPos="random">
        <route edges="152903 153477#1 152302 153342 152303 -153476#26 -153476#25 -153476#24 -153476#23 -153476#22 -153476#20 -153476#19 -153476#18 -153476#17 -153476#16 -153476#15 -153476#14 -153476#13 -153476#12 -153476#11 -153476#10 153008#0 153008#1 153008#2 153008#3 153008#4 153008#5 153008#6 153008#7 152402#2 152402#3 152899#0 152899#1 152899#2 -152870#4 -152870#3 -152870#2 -152870#1 -152870#0 153552#3 153552#0 152945#0 152945#1 152945#2 152814#11 152759 152230 152785#0 152819 152944#2 152234 152701#0 152701#1 152701#2 152701#3 152701#4 152701#5 152703 152705#0 152705#1 152175 152678 152542 152647#0"/>
    </vehicle>
    <vehicle id="commercial_1-1_551" type="commercial" depart="18106" departLane="best" arrivalPos="random">
        <route edges="152457#0 152457#1 152457#2 152165#1 152535#0 152535#1 152535#2 152535#4 152535#6 152654#4 152670#3 152677#0 152677#1 152677#2 152677#3 152677#4 152677#5 152650#0 152672#1 152672#2 -152381 -152716 -152767#3 -152767#2 -152767#1 -152767#0 -152701#0 152229 152943#0 152943#1 -152814#11 -152814#10 -152814#9 152801 152782"/>
    </vehicle>
    <vehicle id="commercial_1-1_272" type="commercial" depart="18119" departLane="best" arrivalPos="random">
        <route edges="-152814#4 -152814#3 -152814#2 152896 152814#1 152814#2 152814#3 152814#4 152814#5 152814#6 152814#7 152814#8 152814#9 152814#10 152814#11 152759 152230 152785#0 152819 152944#2 152234 152701#0 152701#1 152701#2 -152706#3 -152706#2 -152706#1 -152706#0 152998 152709#1 152693#0 152693#1"/>
    </vehicle>
    <vehicle id="commercial_2-1_28" type="commercial" depart="18148" departLane="best" arrivalPos="random">
        <route edges="153428 -153426#0 153429 -152745 -152908#0 153433#1 152734#0 -152736#2 -152736#1 -152736#0 153391#0 153391#1 153392#1 153387#1 153387#2 -152628#1 -152628#0 -153384#1 -153384#0 -152177 -152176#2 -152176#1 -152176#0 -153383#0 -152250 -153385#1 -153385#0 -152251 -153412#5 -153329#5 -153329#4 -153331#11 -153331#10 -153331#9 -153331#8 -153331#7 -153331#6 -153331#5 -153331#4 -153331#2 -153331#1 -153331#0 -153415#1 -153415#0 153413#14 153413#15 153413#16 152997 152999 152706#0 152706#1 152706#2 152706#3 152780 152767#2 152767#3 152716 152381 -152775#0 152810#0 152810#1 152810#2 152820 152960#1 152960#2 152960#3 152960#4 152960#5 152960#6 152960#7 152960#8 -152825#1 -152825#0 -153549#2 -153549#1 -153549#0 153549#0 153549#1 153549#2 152825#0"/>
    </vehicle>
    <vehicle id="commercial_1-GW1_31" type="commercial" depart="18149" departLane="best" arrivalPos="random">
        <route edges="-152790 152812#4 152812#5 152814#8 152801 152782 153552#2 152870#0 152870#1 152870#2 152870#3 152870#4 152870#5 -152899#1 -152899#0 152402#0 152402#1 -153008#7 -153008#6 -153008#5 -153008#4 -153008#3 -153008#2 -153008#1 -153008#0 153476#10 153476#11 153476#12 153476#13 153476#14 153476#15 153476#16 153476#17 153476#18 153476#19 153476#20 153476#22 153476#23 153476#24 153476#25 153476#26 -152303 -153342 -152302 -153477#1 -153477#0 -152257 -152927 -152304 -153478"/>
    </vehicle>
    <vehicle id="commercial_1-1_267" type="commercial" depart="18154" departLane="best" arrivalPos="40.16923210112182">
        <route edges="152898#2 -152299 152857 152137#3 152137#4 152137#5 152821#0 152826 152818#2 152818#3 152389 152468 152296 153640 153639 152874#4 152874#5 152874#0 152451"/>
        <stop parkingArea="1151" until="44876"/>
    </vehicle>
    <vehicle id="commercial_1-GW2_236" type="commercial" depart="18160" departLane="best" arrivalPos="random">
        <route edges="-152776 152763 -152772 -152773 152774 -152760 -152763 152776 152817#0 152817#1 152817#2 152817#3 152959#5 152959#1 152959#2 152959#3 -152821#2 -152821#1 -152821#0 152137#6 152137#7 -152139 152318#4 152318#1 152318#2 -152308 152281 152530 -152330#5 -152330#4 -152330#3 -152330#2 -152330#1 -152330#0 153637 152405 -153007#6 -153456#6 -153456#5 -153456#4 -153456#3 -153456#2 -153456#1 -153456#0 153451#5 153451#6 153451#7 153433#1 153424#1 152624#0 152624#1 152977 -152572#2 -152572#1 152574#1"/>
    </vehicle>
    <vehicle id="commercial_GW1-1_320" type="commercial" depart="18165" departLane="best" arrivalPos="random">
        <route edges="153478 152304 152927 152257 153477#0 153477#1 152302 153342 152303 -153476#26 -153476#25 -153476#24 -153476#23 -153476#22 -153476#20 -153476#19 -153476#18 -153476#17 -153476#16 -153476#15 -153476#14 -153476#13 -153476#12 -153476#11 -153476#10 153008#0 153008#1 153008#2 153008#3 153008#4 153008#5 153008#6 153008#7 152402#2 152402#3 152899#0 152899#1 152899#2 -152870#4 -152870#3 -152870#2 -152870#1 -152870#0 153552#3 153552#0 152945#0 152945#1 152945#2 152814#11 152759 152230 152785#0 152819 152944#2 152234 152701#0 152701#1 152701#2 -152706#3 -152706#2 -152706#1 -152706#0 -152999 -152997 -153413#16 -153413#15 -153413#14 -153413#13 -153413#12 -153413#11 -153413#10 -153413#9 -153413#8 -153413#7 -153413#6"/>
    </vehicle>
    <vehicle id="commercial_2-1_296" type="commercial" depart="18179" departLane="best" arrivalPos="33.56016137938613">
        <route edges="-152642#0 152642#2 152642#3 -152572#3 -152977 -152624#1 -152624#0 -153424#1 -153424#0 -153433#0 -153451#6 -153451#5 153456#0 153456#1 153456#2 153456#3 153456#4 153456#5 153456#6 153007#6 152406 153636#1 153002#0 152838 153005#1 152235 153338 153641 152330#0 152330#1 152330#2 152330#3 152330#4 152330#5 152166 -153006#3 -153006#2 -153006#1 -153006#0 -152899#1 -152899#0"/>
        <stop parkingArea="1139" until="43676"/>
    </vehicle>
    <vehicle id="commercial_2-1_173" type="commercial" depart="18182" departLane="best" arrivalPos="random">
        <route edges="152649#4 152649#5 153406#0 153406#1 153406#2 152940 152684 152174#1 -152701#5 -152701#4 -152701#3 -152706#3 -152706#2 -152706#1 -152706#0 -152999 -152997 -153413#16 -153413#15 -153413#14 153415#0 153415#1 153415#2 153415#3 153415#4 153415#5 -153410#6 -153410#5 -153410#4 -153410#3 -153410#2 -153410#1 -153410#0 153423#3 153423#4 152255#0 152255#1 -153440#6 -153440#5 -153440#4 -153440#3 -153440#2 -153440#1 -153441#3 -153441#2"/>
    </vehicle>
    <vehicle id="commercial_GW1-1_322" type="commercial" depart="18184" departLane="best" arrivalPos="random">
        <route edges="153478 152304 152927 152257 153477#0 153477#1 152302 153342 152303 -153476#26 -153476#25 -153476#24 -153476#23 -153476#22 -153476#20 -153476#19 -153476#18 -153476#17 -153476#16 -153476#15 -153476#14 -153476#13 -153476#12 -153476#11 -153476#10 153008#0 153008#1 153008#2 153008#3 153008#4 153008#5 153008#6 153008#7 152402#2 152402#3 152899#0 152899#1 152899#2 -152870#4 -152870#3 -152870#2 -152870#1 -152870#0 153552#3 153552#0 152945#0 152945#1 152945#2 152814#11 152759 152230 152785#0 152819 152944#2 152234 152701#0 152701#1 152701#2 152701#3 152701#4 152701#5 152703 152705#0 152705#1 152175 152678 152542 152647#0 152647#1 152647#2"/>
    </vehicle>
    <vehicle id="commercial_1-1_230" type="commercial" depart="18197" departLane="best" arrivalPos="random">
        <route edges="152988 152814#0 152814#1 152814#2 152814#3 152814#4 152814#5 152814#6 152814#7 152814#8 152814#9 152814#10 152814#11 152759 152230 152785#0 152819 152944#2 152234 152701#0 152701#1 152701#2 152701#3 152701#4 152701#5 152703"/>
    </vehicle>
    <vehicle id="commercial_GW1-1_353" type="commercial" depart="18215" departLane="best" arrivalPos="random">
        <route edges="152525#0 152525#0-AddedOffRampEdge 152529 152280 152532 152204 152326 152203 152328#0 152328#1 152288 152855 152210 152536 152394 153641 152330#0 152330#1 152330#2 152330#3 152330#4 152330#5 152166 152168#0 152168#1 152399#1 152399#2 152901#0 152901#1 152988 152814#0 152814#1 152814#2 152814#3 152814#4 152814#5 152814#6 152814#7 152814#8 152814#9 152814#10 152814#11 152759 152230 152785#0 152819 152944#2 152234 152701#0 152701#1 152701#2 152701#3 152701#4 152701#5 152703 152704 152667#1 152667#2 152667#3 152667#4 152667#5 152667#6"/>
    </vehicle>
    <vehicle id="commercial_2-1_26" type="commercial" depart="18222" departLane="best" arrivalPos="random">
        <route edges="153656 152283 -152555 -153357#2 -153354#2 -153354#1 -153354#0 -153359#1 -153359#0 -153323#4 -153323#3 -153323#2 -153323#1 -153323#0 -153365#4 -153365#3 -153365#1 -153365#0 152346#1 152221 152585#1 152350 152582#0 152582#1 -152590#2 -152590#1 -152590#0 -153380#4 -153380#3"/>
    </vehicle>
    <vehicle id="commercial_GW2-1_190" type="commercial" depart="18245" departLane="best" arrivalPos="random">
        <route edges="153656 152283 -152555 -153357#2 -153354#2 -153354#1 -153354#0 -153359#1 -153359#0 -153323#4 -153323#3 -153323#2 -153323#1 -153323#0 -153363#3 152560 -152581#4 -152581#3 -152581#2 -152581#1 -152581#0 152345#1 -152579#1 -152579#0 -152220 -152587#3 -152587#2 -152587#1 -152587#0 152224 152170#0 152170#1 152607 152363#3 152363#0 152363#1 -152669#1 -152669#0 -152226 -152290 -152761 -152291 -152800 -152292 -152794 152293 152385 -152206 152461 152311 152312#2 -152309 152318#1 152317 -152898#2 -152898#1 -152898#0 153560 152975#2 152900#0 -152887#2"/>
    </vehicle>
    <vehicle id="commercial_1-1_306" type="commercial" depart="18248" departLane="best" arrivalPos="random">
        <route edges="-152899#0 152402#0 152402#1 152402#2 152402#3 152899#0 152899#1 152899#2 -152870#4 -152870#3 -152870#2 -152870#1 -152870#0 153552#3 153552#0 152945#0 152945#1 152945#2 152814#11 152759 152230 152785#0 152819 152944#2 152234 152701#0 152767#0 152767#1 152767#2 152767#3 152939#5 -152775#5 -152775#4 -152775#3"/>
    </vehicle>
    <vehicle id="commercial_3-1_128" type="commercial" depart="18250" departLane="best" arrivalPos="random">
        <route edges="153436 -152253 -153395 -152252 -152413#3 -152413#2 -152413#1 -152413#0 152412 152444#1 -153435#3 -153435#2 -153435#1 -153435#0 153451#6 153451#7 153433#1 152734#0 -152736#2 -152736#1 -152736#0 153391#0 153391#1 153392#1 153387#1 153387#2 -152628#1 -152628#0 -153384#1 -153384#0 -152177 -152176#2 -152176#1 -152176#0 -153383#0 -152250 -153385#1 -153385#0 -152251 -153412#5 -153329#5 -153329#4 -153331#11 -153331#10 -153331#9 -153331#8 -153331#7 -153331#6 -153331#5 -153331#4 -153331#2 -153331#1 -153331#0 -153415#1 -153415#0 153413#14 153413#15 153413#16 152997 152999 152706#0 152706#1 152706#2 152706#3 152780 152767#2 -152546 -152781"/>
    </vehicle>
    <vehicle id="commercial_1-1_519" type="commercial" depart="18261" departLane="best" arrivalPos="random">
        <route edges="152767#0 152767#1 152767#2 -152546 -152781"/>
    </vehicle>
    <vehicle id="commercial_1-2_56" type="commercial" depart="18261" departLane="best" arrivalPos="random">
        <route edges="152883#0 152878 -153559#3 -152898#0 152974"/>
    </vehicle>
    <vehicle id="commercial_1-1_233" type="commercial" depart="18273" departLane="best" arrivalPos="random">
        <route edges="152422#1 152383#0 152383#1 -152383#1 -152383#0 -152422#1 -152422#0 -152789#0 152387 152816#1 152816#2 152816#3 152831#0 152831#1 152831#2 152960#5 152960#6 152960#7 152960#8 152960#10 152959#2 152959#3 152959#4 -152817#3 -152817#2 -152817#1 -152817#0 -152776 152763 152760 152799 152803 -152865 -152947 152888 152876 152859"/>
    </vehicle>
    <vehicle id="commercial_2-1_297" type="commercial" depart="18300" departLane="best" arrivalPos="random">
        <route edges="153331#2 152689 -152689 -153331#2 -153331#1 -153331#0 -153415#1 -153415#0 153413#14 153413#15 153413#16 152997 152999 152706#0 152706#1 152706#2 152706#3 -152701#2 -152701#1 -152701#0 152229 152943#0 152793 152785#2 152167 152969#0 152969#1 152969#2 152969#3 -152795#1 152808 152959#3 152959#4 -152817#3 -152817#2 -152817#1 -152817#0 -152776 152763 152760 152799 152803 -152865 -152947 152888 152876 152859"/>
    </vehicle>
    <vehicle id="commercial_1-2_69" type="commercial" depart="18308" departLane="best" arrivalPos="random">
        <route edges="-153558 153559#1 153559#2 153559#3 -152878 152883#1 152883#2 152874#5 152874#0 152874#1 152874#2 153638 152297#0 152297#0-AddedOffRampEdge 152297#1 152967 152816#2 152816#3 152816#4 152816#5 -152810#2 -152810#1 -152810#0 152775#0 -152381 -152716 -152767#3 -152767#2 -152780 -152706#3 -152706#2 -152706#1 -152706#0 -152999 -152997 -153413#16 -153413#15 -153413#14 153415#0 153415#1 153415#2 153415#3 153415#4 153415#5 -153410#6 -153410#5 -153410#4 -153410#3 -153410#2 -153410#1 -153410#0 -153423#2 -153423#1"/>
    </vehicle>
    <vehicle id="commercial_1-1_149" type="commercial" depart="18318" departLane="best" arrivalPos="random">
        <route edges="-152777 152384 152816#0 152816#1 152816#2 152816#3 152816#4 152816#5 -152810#2 -152810#1 -152810#0 152775#0 152775#2 152775#3 152775#4 152775#5 -152702#1 -152702#0 152667#1 152667#2 152667#3 152667#4 152667#5 152667#6 152667#7 152667#8 152667#9 152667#10 152667#11 152605#1 152605#2 152169 152223 152453 152454#1 152454#2 152454#3 152606#0 152606#1 152606#2 152606#3 152606#4 152606#5 152606#6 152606#7 152606#8"/>
    </vehicle>
    <vehicle id="commercial_2-1_175" type="commercial" depart="18327" departLane="best" arrivalPos="random">
        <route edges="-153041 -153039 153039 153041 153420#1 153420#2 153420#3 153420#4 153420#5 153420#6 153420#7 153412#3 153412#4 -153329#5 -153329#4 -153331#11 -153331#10 -153331#9 -153331#8 -153331#7 -153331#6 -153331#5 -153331#4 -153331#2 -153331#1 -153331#0 -153415#1 -153415#0 153413#14 153413#15 153413#16 152997 152999 152706#0 152706#1 152706#2 152706#3 152780 152767#2 152767#3 152716 152381 -152672#2 -152672#1 -152650#0 -152677#5 -152677#4 -152677#3 -152677#2 -152677#1 -152677#0 152654#0 152654#1 152654#2 152534#0 152534#2"/>
    </vehicle>
    <vehicle id="commercial_1-1_408" type="commercial" depart="18341" departLane="best" arrivalPos="random">
        <route edges="152859 152773 152772 -152763 152776 152817#0 152817#1 152817#2 152817#3 152959#5 152779 152818#0 152818#1 152818#2 152818#3 152816#0 152816#1 152816#2 152816#3 152816#4 152816#5 -152810#2 -152810#1 -152810#0 152775#0 152775#2 152775#3 152775#4 152775#5 -152702#1 -152702#0 152667#1 152667#2 152667#3 152667#4 152667#5 152667#6 152667#7 152667#8 152667#9 152667#10 152667#11 152605#1 152605#2 152169 152223 152453 152454#1 -152582#4 -152582#3 -152582#2 -152582#1 -152349 152582#2 152582#3"/>
    </vehicle>
    <vehicle id="commercial_1-GW2_230" type="commercial" depart="18341" departLane="best" arrivalPos="random">
        <route edges="152137#1 152137#2 152137#3 152137#4 152137#5 152137#6 152137#7 -152139 152318#4 152318#1 152318#2 -152308 152281 152530 -152330#5 -152330#4 -152330#3 -152330#2 -152330#1 -152330#0 153637 152405 -153007#6 -153456#6 -153456#5 -153456#4 -153456#3 -153456#2 -153456#1 -153456#0 -153451#4 -153451#3 -153451#2 -153451#1 -153451#0 -153452#1 -153452#0"/>
    </vehicle>
    <vehicle id="commercial_1-1_181" type="commercial" depart="18350" departLane="best" arrivalPos="random">
        <route edges="-152836#4 -152836#3 -152836#2 -152391 152836#3 152836#4 152836#5 152836#6 152814#3 152814#4 152814#5 152814#6 152814#7 152814#8 152814#9 152814#10 152814#11 152759 152230 152785#0 152785#1 152785#2 152167 152969#0 152969#1 152969#2 152969#3 152987#0 152987#1 152987#2 -152987#2 -152987#1 -152987#0 -152969#3 -152969#2 -152969#1 -152969#0 152791 152796#0 152796#1"/>
    </vehicle>
    <vehicle id="commercial_1-GW2_277" type="commercial" depart="18352" departLane="best" arrivalPos="random">
        <route edges="-152760 -152763 152776 152817#0 152817#1 152817#2 152817#3 152959#5 152779 152818#0 152818#1 152818#2 152818#3 152816#0 152816#1 152816#2 152816#3 152816#4 152816#5 -152810#2 -152810#1 -152810#0 152775#0 152775#2 152775#3 152775#4 152775#5 -152702#1 -152702#0 152667#1 152667#2 152667#3 152667#4 152667#5 152667#6 152667#7 152667#8 152667#9 152667#10 152667#11 152605#1 152605#2 152169 152223 152453 152454#1 -152582#4 -152582#3 -152582#2 -152582#1 -152582#0 152576 152219 153365#0 153365#1 153365#3 153365#4 153323#0 153323#1 153323#2 153323#3 153323#4 153359#0 153359#1 153354#0 153354#1 153354#2 153357#2 -152957 -152283 152554"/>
    </vehicle>
    <vehicle id="commercial_1-1_473" type="commercial" depart="18380" departLane="best" arrivalPos="random">
        <route edges="-152459#1 -152460 152347#1 152535#0 152535#1 152535#2 152535#4 152535#6 152654#4 152670#3 152677#0 152677#1 152677#2 152677#3 152677#4 152677#5 152650#0 152672#1 152672#2 -152381 -152716 -152767#3 -152767#2 -152767#1 -152767#0 -152701#0 152229 152943#0 152793 152785#2 152167 152827#0 152827#1"/>
    </vehicle>
    <vehicle id="commercial_2-1_281" type="commercial" depart="18388" departLane="best" arrivalPos="random">
        <route edges="153383#2 153023#0 153023#1 153023#2 153023#3 153374#1 153374#2 153374#3 153374#4 153374#5 153374#6 153374#7 153374#8 153374#9 153374#10 153374#11 153374#12 153374#13 153374#14 152933#1 152933#2 152933#3 -153399#1 -153399#0 153413#0 153413#1 153413#3 153413#4 153413#5 153413#6 153413#7 153413#8 153413#9 153413#10 153413#11 153413#12 153413#13 153413#14 153413#15 153413#16 152997 152999 152706#0 152706#1 152706#2 152706#3 152701#3 152701#4 152701#5 152703 152705#0"/>
    </vehicle>
    <vehicle id="commercial_GW2-1_144" type="commercial" depart="18393" departLane="best" arrivalPos="random">
        <route edges="-152574#1 152572#1 152572#2 -152977 -152624#1 -152624#0 152732 153490#0 153490#1 153490#2 153490#3 153490#4 153490#5 153387#0 153387#1 153387#2 -152628#1 -152628#0 -153384#1 -153384#0 -152177 -152176#2 -152176#1 -152176#0 -153383#0 -152250 -153385#1 -153385#0 -152251 -153412#5 -153329#5 -153329#4 -153331#11 -153331#10 -153331#9 -153331#8 -153331#7 -153331#6 -153331#5 -153331#4 -153331#2 -153331#1 -153331#0 -153415#1 -153415#0 153413#14 153413#15 153413#16 152997 152999 152706#0 152706#1 152715 152711#0 152712"/>
    </vehicle>
    <vehicle id="commercial_1-GW1_149" type="commercial" depart="18393" departLane="best" arrivalPos="random">
        <route edges="-152938#2 -152938#1 -152938#0 152402#3 152402#0 152402#1 -153008#7 -153008#6 -153008#5 -153008#4 -153008#3 -153008#2 -153008#1 -153008#0 153476#10 153476#11 153476#12 153476#13 153476#14 153476#15 153476#16 153476#17 153476#18 153476#19 153476#20 153476#22 153476#23 153476#24 153476#25 153476#26 -152303 -153342 -152302 -153477#1 -153477#0 -152257 -152927 -152304 -153478"/>
    </vehicle>
    <vehicle id="commercial_1-1_538" type="commercial" depart="18400" departLane="best" arrivalPos="random">
        <route edges="-152781 152665 152775#3 152775#4 152775#5 -152702#1 -152702#0 152667#1 152667#2 152667#3 152667#4 152667#5 152667#6 152667#7 152667#8 152667#9 152667#10 152652#0 152652#1 -152354#0 152353#3 -152513#1 -152606#9 -152606#8 -152606#7 -152937#4 -152937#3 -152937#2"/>
    </vehicle>
    <vehicle id="commercial_1-GW1_282" type="commercial" depart="18402" departLane="best" arrivalPos="random">
        <route edges="152606#7 -152608 152608 -152606#7 -152606#6 -152606#5 -152606#4 -152606#3 -152606#2 -152617 -152610 152602 152607 152363#3 152363#0 152363#1 -152669#1 -152669#0 -152226 -152290 -152761 -152291 -152800 -152292 -152794 152293 152385 -152206 152461 152311 152312#2 -152309 152318#1 152318#2 -152308 152281 152530 -152330#5 -152330#4 -152330#3 -152330#2 -152330#1 -152330#0 153637 153634#1 153636#1 152964 -152536 -152210 -152855 -152288 152325#0 152325#1 152202 152327 152205 152329 152323#1"/>
    </vehicle>
    <vehicle id="commercial_1-GW2_17" type="commercial" depart="18403" departLane="best" arrivalPos="random">
        <route edges="152938#2 152419#1 152281 152530 -152330#5 -152330#4 -152330#3 -152330#2 -152330#1 -152330#0 153637 153634#1 153636#1 153002#0 153002#1 -153458#1 -153458#0 -153459#0 -152256 153460"/>
    </vehicle>
    <vehicle id="commercial_1-1_109" type="commercial" depart="18460" departLane="best" arrivalPos="random">
        <route edges="152234 152701#0 152767#0 152767#1 152767#2 -152546 -152939#2 -152939#1 -152939#0 -152810#0 152775#0"/>
    </vehicle>
    <vehicle id="commercial_2-1_12" type="commercial" depart="18467" departLane="best" arrivalPos="random">
        <route edges="-153391#0 -152723#1 -152723#0 152723#0 152723#1 153391#0 153391#1 -153392#0 153327#0 153327#1 153327#2 153327#3 153327#4 153327#5 153327#6 153327#7 153327#8 153327#9 153327#11 153327#12 -153335#7 -153335#6 -153335#5 -153335#4 -153335#3 -153335#2 -153335#1 -153335#0 153444#2 153444#3 153444#4 153444#5 152892#1 -152300 152891#0 152891#1 152399#0 152399#1 152399#2 152901#0 152901#1 152320 152403 152132 152421 152895#2 152982#0 152982#1 152982#2 152982#3 -152900#1 -152887#2 -153558"/>
    </vehicle>
    <vehicle id="commercial_GW1-1_350" type="commercial" depart="18475" departLane="best" arrivalPos="random">
        <route edges="152525#0 152525#0-AddedOffRampEdge 152529 152280 152532 152204 152326 152203 152328#0 152328#1 152288 152855 152210 152536 152394 153641 152330#0 152330#1 152330#2 152330#3 152330#4 152330#5 152166 -153006#3 -153006#2 -153006#1 -153006#0 152899#2 -152870#4 -152832#6 -152832#5 -152832#4 -152832#3 -152832#2 -152832#1 -152832#0 -152987#1 -152987#0 -152969#3 -152969#2 -152969#1 -152969#0 -152167"/>
    </vehicle>
    <vehicle id="commercial_3-1_195" type="commercial" depart="18480" departLane="best" arrivalPos="random">
        <route edges="153457 153459#1 153458#1 153005#0 153005#1 152235 153338 153641 152330#0 152330#1 152330#2 152330#3 152330#4 152330#5 152166 152168#0 152168#1 152399#1 152399#2 152901#0 152901#1 152320 152403 152132 152421 152895#2 152982#0 152982#1 152982#2 152982#3 -152900#1 -152887#2 -152887#1 -152887#0 152898#0 152898#1 152898#2"/>
    </vehicle>
    <vehicle id="commercial_1-GW2_257" type="commercial" depart="18484" departLane="best" arrivalPos="random">
        <route edges="152787#2 152762 152289 152662 152654#2 152534#0 152534#2 152534#4 152534#5 152534#6 152534#7 -152165#1 -152165#0 153547 -152577#4 -152577#3 -152577#2 -152970#1 152465#0 -153555 -152213 152557#1 153365#3 153365#4 153323#0 153323#1 153323#2 153323#3 153323#4 153359#0 153359#1 153354#0 153354#1 153354#2 153357#2 -152957 -152283 152554"/>
    </vehicle>
    <vehicle id="commercial_1-2_210" type="commercial" depart="18485" departLane="best" arrivalPos="random">
        <route edges="152607 152363#3 152363#0 152363#1 152363#2 -152607 -152170#1 -152170#0 -152224 152587#0 152587#1 152587#2 152587#3 152220 152579#0 152579#1 152348 152578#1 -152218 153378#0 153378#1 153378#2 153376 152221 -153480#7 -153480#6 -153480#5 -153480#4 -153364#1"/>
    </vehicle>
    <vehicle id="commercial_3-1_317" type="commercial" depart="18499" departLane="best" arrivalPos="random">
        <route edges="153395 152253 -153436 153436 -152253 -153395 -152252 -152413#3 -152413#2 -152413#1 -152413#0 152412 152444#1 -153435#3 -153435#2 -153435#1 -153435#0 153451#6 153451#7 153433#1 152734#0 -152736#2 -152736#1 -152736#0 153391#0 153391#1 153392#1 153387#1 153387#2 -152628#1 -152628#0 -153384#1 -153384#0 -152177 -152176#2 -152176#1 -152176#0 153383#1 153383#2 153383#3 153383#4 153383#5 -152246 153369#0 153369#1 152245 152565 152307 -153372#4 -153372#3 -153372#2 153480#0 153480#1 153480#2 153480#3 153480#4 153480#5 153480#6 153480#7 152216 -153378#2 -153378#1 152584"/>
    </vehicle>
    <vehicle id="commercial_1-GW1_254" type="commercial" depart="18508" departLane="best" arrivalPos="random">
        <route edges="152603 152604 152534#5 152609 152614 152535#1 152535#2 152535#4 152535#6 152654#4 152670#3 152670#4 152282 -152290 -152761 -152291 -152800 -152292 -152794 152293 152385 -152206 152461 152311 152312#2 -152309 152318#1 152318#2 152318#3 152139 152137#0 152138 152968 -152270 -152418 -152958 153476#1 153476#2 153476#3 153476#5 153476#6 153476#7 153476#8 153476#9 153476#10 153476#11 153476#12 153476#13 153476#14 153476#15 153476#16 153476#17 153476#18 153476#19 153476#20 153476#22 153476#23 153476#24 153476#25 153476#26 -152303 -153342 -152302 -153477#1 -153477#0 -152257 -152927 -152304 -153478"/>
    </vehicle>
    <vehicle id="commercial_2-1_375" type="commercial" depart="18514" departLane="best" arrivalPos="random">