<?xml version="1.0" encoding="UTF-8"?>

<!--
    Monaco SUMO Traffic (MoST) Scenario
    Copyright (C) 2019
    Lara CODECA

    This program is free software: you can redistribute it and/or modify
    it under the terms of the GNU General Public License as published by
    the Free Software Foundation, either version 3 of the License, or
    (at your option) any later version.

    This program is distributed in the hope that it will be useful,
    but WITHOUT ANY WARRANTY; without even the implied warranty of
    MERCHANTABILITY or FITNESS FOR A PARTICULAR PURPOSE.  See the
    GNU General Public License for more details.

    You should have received a copy of the GNU General Public License
    along with this program.  If not, see <http://www.gnu.org/licenses/>.
-->

<routes xmlns:xsi="http://www.w3.org/2001/XMLSchema-instance" xsi:noNamespaceSchemaLocation="http://sumo.dlr.de/xsd/routes_file.xsd"> 
    <vehicle id="special_1-1_148" type="special" depart="18002" departLane="best" arrivalPos="random">
        <route edges="152775#0 -152381 -152716 -152767#3 -152767#2 -152767#1 -152767#0 -152701#0 152229 152943#0 152943#1 -152814#11 -152814#10 -152814#9 -152814#8 -152814#7 -152814#6 -152814#5 -152814#4 -152814#3 -152836#6 -152836#5 -152836#4"/>
    </vehicle>
    <vehicle id="special_1-2_15" type="special" depart="18007" departLane="best" arrivalPos="random">
        <route edges="152535#4 152535#6 152654#4 152670#3 152677#0 152677#1 152677#2 152677#3 152677#4 152677#5 152650#0 152672#1 152672#2 -152381 -152716 -152767#3 -152767#2 -152780 -152706#3 -152706#2 -152706#1 -152706#0 -152999 -152997 -153413#16 -153413#15 -153413#14 153415#0 153415#1 153415#2"/>
    </vehicle>
    <vehicle id="special_1-1_124" type="special" depart="18029" departLane="best" arrivalPos="random">
        <route edges="152582#3 152582#4 152454#2 152454#3 152606#0 152606#1 -152617 -152610 152602 152607 152363#3 152363#0 152363#1 -152669#1 152670#0 152670#1 152670#2 152670#3 152654#0 152654#1 152654#2 152534#0 152534#2 152534#4 152534#5 152534#6 152534#7"/>
    </vehicle>
    <vehicle id="special_1-3_216" type="special" depart="18033" departLane="best" arrivalPos="random">
        <route edges="-153554#2 -153554#1 -153554#0 153404#1 153404#2 153404#3 153404#4 153404#5 153404#6 153404#7 153404#8 153003#0 153003#1 153004 152813 -152814#8 -152814#7 -152814#6 -152814#5 -152814#4 -152814#3 -152814#2 -152814#1 -152814#0 152989 -152901#1 -152901#0 152399#3 152399#0 -152168#1 -152168#0 -152166 -152330#5 -152330#4 -152330#3 -152330#2 -152330#1 -152330#0 153637 153634#1 153636#1 153002#0 153002#1"/>
    </vehicle>
    <vehicle id="special_3-1_203" type="special" depart="18049" departLane="best" arrivalPos="random">
        <route edges="153029 -153394#1 -153394#0 -152413#2 -152413#1 -152413#0 152412 152444#1 -153435#3 -153435#2 -153435#1 -153435#0 153451#6 153451#7 153433#1 152734#0 -152736#2 -152736#1 -152736#0 153391#0 153391#1 153392#1 153387#1 153387#2 -152628#1 -152628#0 -153384#1 -153384#0 -152177 -152176#2 -152176#1 -152176#0 -153383#0 -152250 -153385#1 -153385#0 -152251 -153412#5 -153329#5 -153329#4 -153329#3 -153329#2 -153329#1 -153329#0 152933#3 -153399#1 -153399#0 152649#0 152649#1 152649#2 152649#3 152649#4 152649#5 153406#0 153406#1 153406#2 152679 152678 -152686"/>
    </vehicle>
    <vehicle id="special_1-3_188" type="special" depart="18058" departLane="best" arrivalPos="random">
        <route edges="152808 152959#3 -152821#2 -152821#1 -152821#0 152137#6 152137#7 -152139 152318#4 152318#1 152318#2 -152308 152281 152530 -152330#5 -152330#4 -152330#3 -152330#2 -152330#1 -152330#0 153637 153634#1 153636#1 153002#0 153002#1 -153458#1 152903"/>
    </vehicle>
    <vehicle id="special_2-1_0" type="special" depart="18073" departLane="best" arrivalPos="random">
        <route edges="152606#8 152606#9 152513#1 152353#4 152353#1 152353#2 152354#0 152354#1 -152652#0 -152667#10 -152667#9 -152667#8 -152667#7 -152667#6 -152667#5 -152667#4 -152668#2 -152668#1 -152668#0 -152677#4"/>
    </vehicle>
    <vehicle id="special_1-3_0" type="special" depart="18087" departLane="best" arrivalPos="random">
        <route edges="152988 152814#0 152814#1 152896 -152814#0 152989 -152901#1 -152901#0 152399#3 152399#0 -152168#1 -152168#0 -152166 -152330#5 -152330#4 -152330#3 -152330#2 -152330#1 -153479#11 -153479#9 -153479#8 -153479#7 -153479#6 -153479#5 -153479#3 -153479#2 -153479#1 -153479#0 153476#26 -152303 -153342 -152302 -153477#1 -153477#0 -152257 -152927"/>
    </vehicle>
    <vehicle id="special_1-3_171" type="special" depart="18121" departLane="best" arrivalPos="random">
        <route edges="152290 152287 152654#1 152654#2 152654#3 152654#4 152670#3 152670#4 152282 -152290 -152761 -152291 -152800 -152292 -152794 152293 152385 -152206 152461 152311 152312#2 -152309 152318#1 152318#2 -152308 152281 152530 -152330#5 -152330#4 -152330#3 -152330#2 -152330#1 -152330#0 153637 152405 -153007#6 -153456#6 -153456#5 -153456#4 -153456#3 -153456#2 -153456#1 -153456#0 -153451#4 -153451#3 -153451#2 -153451#1 -153451#0 -153452#1 153457"/>
    </vehicle>
    <vehicle id="special_1-3_110" type="special" depart="18127" departLane="best" arrivalPos="random">
        <route edges="152611#0 -152615#0 152454#3 152454#4 -152453 -152223 -152169 -152605#2 -152605#1 -152605#0 -152667#10 -152667#9 -152667#8 -152667#7 -152667#6 -152667#5 -152667#4 -152667#3 -152667#2 -152667#1 152702#0 152702#1 -152775#5 -152775#4 -152775#3 -152775#2 -152775#0 152810#0 152810#1 152810#2 152820 152960#1 152960#2 152960#3 152960#4 152305 152312#0 152312#1 152312#2 -152309 152318#1 152318#2 152318#3 152139 152137#0 152138 152968 -152270 -152418 -152958 153476#1 153476#2 153476#3 153476#5 153476#6 153476#7 153476#8 153476#9 153476#10 153476#11 153476#12 153476#13 153476#14 153476#15 153476#16 153476#17 153476#18 153476#19 153476#20 153476#22 153476#23 153476#24 153476#25 153476#26 -152303 -153342 -152302 -153477#1 -152903"/>
    </vehicle>
    <vehicle id="special_3-1_220" type="special" depart="18129" departLane="best" arrivalPos="random">
        <route edges="153452#0 153452#1 153452#2 153451#1 153451#2 153451#3 153451#4 153451#5 153451#6 153451#7 153433#1 152734#0 -152736#2 -152736#1 -152736#0 153391#0 153391#1 153392#1 153387#1 153387#2 -152628#1 -152628#0 -153384#1 -153384#0 -152177 -152176#2 -152176#1 -152176#0 -153383#0 -152250 -153385#1 -153385#0 -152251 -153412#5 -153329#5 -153329#4 -153331#11 -153331#10 -153331#9 -153331#8 -153331#7 -153331#6 -153331#5 -153331#4 -153331#2 -153331#1 -153331#0 -153415#1 -153415#0 153413#14 153413#15 153413#16 152997 152999 152706#0 152706#1 152706#2 152706#3 152780 152767#2 -152546 -152939#2 -152939#1 -152939#0 -152810#0 152775#0"/>
    </vehicle>
    <vehicle id="special_1-3_197" type="special" depart="18144" departLane="best" arrivalPos="random">
        <route edges="152534#2 -152361 152361 152535#4 152535#6 152654#4 152670#3 152670#4 152282 -152290 -152761 -152291 -152800 -152292 -152794 152293 152385 -152206 152461 152311 152312#2 -152309 152318#1 152318#2 -152308 152281 152530 -152330#5 -152330#4 -152330#3 -152330#2 -152330#1 -152330#0 153637 153634#1 153636#1 153002#0 153002#1 -153458#1 -153458#0 -153459#0 -152256 153460 -153460 152256 153459#0 153459#1"/>
    </vehicle>
    <vehicle id="special_1-1_38" type="special" depart="18179" departLane="best" arrivalPos="random">
        <route edges="152791 152796#0 152796#1 153549#2 152825#0 152825#1 152960#10 152959#2 152959#3 152959#4 152959#5 152779 152818#0 152818#1 152818#2 152818#3 152816#0 152816#1 152816#2 152816#3 152816#4 152816#5 -152810#2 -152810#1 -152810#0 152775#0"/>
    </vehicle>
    <vehicle id="special_3-1_16" type="special" depart="18184" departLane="best" arrivalPos="random">
        <route edges="-152903 153458#1 153005#0 153005#1 152235 153338 153641 152330#0 152330#1 152330#2 152330#3 152330#4 152330#5 152166 -153006#3 -153006#2 -153006#1 -153006#0 -152899#1 -152899#0 152402#0 152402#1 152402#2 152938#0 152938#1 152938#2 152419#1 152308 152318#3 152318#4 152309 152312#3 152312#0 152271 152423 152206 -152385 -152293 152794 152292 152800 152291 152761 152290 152286 152669#0 152669#1"/>
    </vehicle>
    <vehicle id="special_1-2_163" type="special" depart="18186" departLane="best" arrivalPos="random">
        <route edges="-152861 -152860 152776 152817#0 152817#1 152817#2 152817#3 152959#5 152779 152818#0 152818#1 152818#2 152818#3 152816#0 152816#1 152816#2 152816#3 152816#4 152816#5 -152810#2 -152810#1 -152810#0 152775#0 152775#2 152775#3 152775#4 152775#5 -152702#1 -152702#0 152667#1 152667#2 152667#3 152667#4 152667#5 152667#6 152667#7 152667#8 152667#9 152667#10 152667#11 152605#1 152605#2 152169 152223 152453 152454#1 -152582#4 -152582#3 -152582#2 -152582#1 -152582#0 152576 152219 153365#0 153365#1 153365#3 153365#4 153323#0 153323#1 153323#2 153323#3 153323#4 153359#0 153359#1 153354#0 153354#1 153354#2 153357#2 -152957"/>
    </vehicle>
    <vehicle id="special_1-2_65" type="special" depart="18203" departLane="best" arrivalPos="random">
        <route edges="152347#0 152347#1 152535#0 152535#1 152535#2 152535#4 152535#6 152654#4 152670#3 152677#0 152677#1 152677#2 152677#3 152677#4 152677#5 152650#0 152672#1 152672#2 -152381 -152716 -152767#3 -152767#2 -152780 -152706#3 -152706#2 -152706#1 -152706#0 -152999 -152997 -153413#16 -153413#15 -153413#14 -153413#13 -153413#12 -153413#11 -153413#10 -153413#9 -153413#8 -153413#7 -153413#6 -153413#5 -153413#4 -153413#3 -153413#1"/>
    </vehicle>
    <vehicle id="special_1-2_143" type="special" depart="18274" departLane="best" arrivalPos="random">
        <route edges="-152451 152874#1 152874#2 152874#3 152874#4 -152883#2 -152883#1 -152883#0 152975#1 152975#2 152900#0 152900#1 152982#4 152973 -152895#1 153476#1 153476#2 153476#3 153476#5 153476#6 153476#7 153476#8 153476#9 153476#10 153476#11 153476#12 153476#13 153476#14 153476#15 153476#16 153476#17 153476#18 153476#19 153476#20 153476#22 153476#23 153476#24 153476#25 153476#26 -152303 -153342 -152302 -153477#1 -152903"/>
    </vehicle>
    <vehicle id="special_1-2_254" type="special" depart="18276" departLane="best" arrivalPos="random">
        <route edges="-152787#1 -152787#0 -152810#2 -152810#1 -152810#0 152775#0 -152381 -152716 -152767#3 -152767#2 -152767#1 -152767#0 -152701#0 152229 152943#0 152943#1 -152814#11 -152814#10 -152814#9 -152814#8 -152812#5 -152812#4 -152812#3 -152812#2 -152812#1 -152812#0 -153441#0 -153445#1"/>
    </vehicle>
    <vehicle id="special_2-1_261" type="special" depart="18297" departLane="best" arrivalPos="random">
        <route edges="152873#2 152873#3 152298 -152646 -152398#1 -152398#0 152458#3 -152451 152874#1 152874#2 153638 152297#0 152297#0-AddedOffRampEdge 152297#1 152967 152816#2 152816#3 152831#0 152831#1 152831#2 152305 152312#0 152271 152423 152206 -152385 -152293 152794 152292 152800 152291 152761 152290 152286 152669#0 152669#1 152363#2 -152607 -152170#1 -152170#0 -152224 152587#0 152587#1 152587#2 152587#3 152220 152579#0 152579#1 152348 152578#1 -152218 153378#0 152584"/>
    </vehicle>
    <vehicle id="special_2-1_220" type="special" depart="18307" departLane="best" arrivalPos="random">
        <route edges="-153489#2 -153489#1 -152931#3 -152931#2 -152931#1 153007#0 153007#2 153007#3 153007#4 153007#5 153007#6 152406 153636#1 153002#0 152838 153005#1 152235 153338 153641 152330#0 152330#1 152330#2 152330#3 152330#4 152330#5 152166 -153006#3 -153006#2 -153006#1 -153006#0 152899#2 -152870#4 -152870#3 -152870#2 -152870#1 -152870#0 153552#3 153552#0 152945#0 152945#1 152945#2 -152814#10"/>
    </vehicle>
    <vehicle id="special_2-1_48" type="special" depart="18316" departLane="best" arrivalPos="random">
        <route edges="-153453#1 -153453#0 153453#0 153453#1 153450 -153476#1 152895#1 152895#2 152982#0 152982#1 152982#2 152982#3 -152900#1 -152900#0 152975#3 152975#4 152883#0 152883#1 152883#2 152874#5 152874#0 152874#1 152874#2 153638 152297#0 152297#0-AddedOffRampEdge 152297#1 152967"/>
    </vehicle>
    <vehicle id="special_1-2_144" type="special" depart="18317" departLane="best" arrivalPos="random">
        <route edges="152593 152590#2 -152582#1 -152582#0 152576 152219 153365#0 153365#1 153365#3 153365#4 153323#0 153323#1 153323#2 153323#3 153323#4 153359#0 153359#1 153354#0 153354#1 153354#2 153357#2 -152957 -152283 152554 153656 152283 -152555"/>
    </vehicle>
    <vehicle id="special_2-1_283" type="special" depart="18341" departLane="best" arrivalPos="random">
        <route edges="152543 152547 -152992 -153492 -153357#2 -153354#2 -153354#1 -153354#0 -153359#1 -153359#0 -153323#4 -153323#3 -153323#2 -153323#1 -153323#0 -153365#4 -153365#3 -153365#1 -153365#0 152346#1 152221 152585#1 152350 152582#0 152582#1 152582#2 152582#3 152582#4 152454#2 152454#3 152454#4 -152453 -152223 -152169 -152605#2 -152605#1 -152605#0 -152667#10 -152667#9 -152667#8 -152667#7 -152667#6 -152667#5 -152667#4 -152667#3 -152667#2 -152667#1 152702#0 152702#1 -152775#5 -152775#4 -152775#3 -152775#2 -152775#0 152810#0 152810#1 152810#2 152820 152960#1 152805#0 152805#1 152805#2 -152766#1 -152766#0"/>
    </vehicle>
    <vehicle id="special_1-3_80" type="special" depart="18359" departLane="best" arrivalPos="random">
        <route edges="152784#0 152784#1 -152386#2 -152386#1 152831#1 152831#2 152305 152312#0 152312#1 152312#2 -152309 152318#1 152318#2 152318#3 152139 152137#0 152138 152968 -152270 -152418 -152958 153476#1 153476#2 153476#3 153476#5 153476#6 153476#7 153476#8 153476#9 153476#10 153476#11 153476#12 153476#13 153476#14 153476#15 153476#16 153476#17 153476#18 153476#19 153476#20 153476#22 153476#23 153476#24 153476#25 153476#26 -152303 -153342 -152302 -153477#1 -152903"/>
    </vehicle>
    <vehicle id="special_2-1_270" type="special" depart="18395" departLane="best" arrivalPos="random">
        <route edges="-152992 -153492 -153357#2 -153354#2 -153354#1 -153354#0 -153359#1 -153359#0 -153323#4 -153323#3 -153323#2 -153323#1 -153323#0 -153365#4 -153365#3 -152557#1 -152557#0 153555 -152465#0 152970#1 152577#2 152577#3 152577#4 152145 152173 153375 152165#1 152535#0 152535#1 152535#2 -152361 152361 152534#4"/>
    </vehicle>
    <vehicle id="special_1-1_58" type="special" depart="18407" departLane="best" arrivalPos="random">
        <route edges="153480#7 152216 -153378#2 -153378#1 -153378#0 152218 -152578#1 152345#0 152345#1 -152579#1 -152579#0 -152220 -152587#3 -152587#2 -152587#1 -152587#0 152224 152170#0 152170#1 152607 152363#3 152363#0 152363#1 -152669#1 -152669#0 -152226 -152290 -152761 -152291 -152800 -152292 -152794 152293 152385 -152206 152461 152311 152312#2 -152309 152318#1 152317 -152898#2 -152898#1 -152898#0 153560 152975#2 152975#3 152975#4 152883#0"/>
    </vehicle>
    <vehicle id="special_1-3_19" type="special" depart="18421" departLane="best" arrivalPos="random">
        <route edges="152607 152363#3 152363#0 152363#1 -152669#1 -152669#0 -152226 -152290 -152761 -152291 -152800 -152292 -152794 152293 152385 -152206 152461 152311 152312#2 -152309 152318#1 152318#2 -152308 152281 152530 -152330#5 -152330#4 -152330#3 -152330#2 -152330#1 -152330#0 153637 152405 -153007#6 -153456#6 -153456#5 -153456#4 -153456#3 -153456#2 -153456#1 -153456#0 153451#5 153435#0 153435#1 153435#2 153435#3 152416#1 152413#0 152413#1 152413#2 152413#3 152252 153395 152253 -153436"/>
    </vehicle>
    <vehicle id="special_1-3_218" type="special" depart="18433" departLane="best" arrivalPos="random">
        <route edges="152582#4 152454#2 152454#3 152454#4 -152453 -152223 -152169 -152605#2 -152605#1 -152605#0 -152667#10 -152667#9 -152667#8 -152667#7 -152667#6 -152667#5 -152667#4 -152667#3 -152667#2 -152667#1 152702#0 152702#1 -152775#5 -152775#4 -152775#3 -152775#2 -152775#0 152810#0 152810#1 152810#2 152820 152960#1 152960#2 152960#3 152960#4 152305 152312#0 152312#1 152312#2 -152309 152318#1 152318#2 152318#3 152139 152137#0 152138 152968 -152270 -152418 -152958 153476#1 153476#2 153476#3 153476#5 153476#6 153476#7 153476#8 153476#9 153476#10 153476#11 153476#12 153476#13 153476#14 153476#15 153476#16 153476#17 153476#18 153476#19 153476#20 153476#22 153476#23 153476#24 153476#25 153476#26 -152303 -153342 -152302 -153477#1 -152903"/>
    </vehicle>
    <vehicle id="special_1-3_58" type="special" depart="18463" departLane="best" arrivalPos="random">
        <route edges="152290 152287 152654#1 152654#2 152654#3 152654#4 152670#3 152670#4 152282 -152290 -152761 -152291 -152800 -152292 -152794 152293 152385 -152206 152461 152311 152312#2 -152309 152318#1 152318#2 -152308 152281 152530 -152330#5 -152330#4 -152330#3 -152330#2 -152330#1 -152330#0 153637 153634#1 153636#1 153002#0 153002#1 -153458#1 -153458#0 -153459#0 -152256"/>
    </vehicle>
    <vehicle id="special_3-1_209" type="special" depart="18470" departLane="best" arrivalPos="random">
        <route edges="152903 153477#1 152302 153342 152303 -153476#26 -153476#25 -153476#24 -153476#23 -153476#22 -153476#20 -153476#19 -153476#18 -153476#17 -153476#16 -153476#15 -153476#14 -153476#13 -153476#12 -153476#11 -153476#10 -153476#9 -153476#8 -153476#7 -153476#6 -153476#5 -153476#3 -153476#2 -153476#1 -153476#0 152418 152270 152419#0 152419#1 152308 152318#3 152318#4 152309 152312#3 -152305 -152831#2 -152831#1 -152831#0 152816#4 152816#5 -152810#2 -152810#1 -152810#0 152775#0 152775#2 152775#3 152775#4 152775#5 -152702#1 -152702#0 152667#1 152667#2 152667#3 152667#4 152667#5 152667#6 152667#7 152667#8 152667#9 152667#10 152652#0 152364 -152364 -152652#0 -152667#10"/>
    </vehicle>
    <vehicle id="special_3-1_167" type="special" depart="18519" departLane="best" arrivalPos="random">
        <route edges="153459#1 153458#1 153005#0 153005#1 152235 153338 153641 152330#0 152330#1 152330#2 152330#3 152330#4 152330#5 152166 152168#0 152168#1 152399#1 152399#2 152901#0 152901#1 152988 152814#0 152814#1 152814#2 152814#3 152814#4 152814#5 152814#6 152814#7 152814#8 152814#9 152814#10 152814#11 152759 152230 152785#0 152819 152944#2 152234 152701#0"/>
    </vehicle>
    <vehicle id="special_1-1_120" type="special" depart="18564" departLane="best" arrivalPos="random">
        <route edges="152859 152774 152799 152803 -152806 -152788 -152868 -152863 -152869 -152877 -152880#2 -152880#1 -152880#0"/>
    </vehicle>
    <vehicle id="special_1-3_59" type="special" depart="18565" departLane="best" arrivalPos="random">
        <route edges="-153554#1 -153554#0 153404#1 153404#2 153404#3 153404#4 153404#5 153404#6 153404#7 153404#8 153003#0 153003#1 153004 152813 -152814#8 -152814#7 -152814#6 -152814#5 -152814#4 -152814#3 -152814#2 -152814#1 -152814#0 152989 -152901#1 -152901#0 152399#3 152399#0 -152168#1 -152168#0 -152166 -152330#5 -152330#4 -152330#3 -152330#2 -152330#1 -152330#0 153637 153634#1 153636#1 153002#0 153002#1 -153458#1 152903"/>
    </vehicle>
    <vehicle id="special_1-1_190" type="special" depart="18569" departLane="best" arrivalPos="random">
        <route edges="153396#0 153396#1 153396#2 153396#3 153396#4 153011#0 153011#1 152649#1 152649#2 152649#3 152649#4 152649#5 153406#0 153406#1 153406#2 152679 152678 152542 152647#0 152648#0 152648#1 152648#2 152648#3 152648#4 152648#5 152648#6 152353#2 152354#0 152354#1 -152652#0 152667#11 152605#1 152605#2 152169 152223 152453 152454#1 -152582#4 -152582#3"/>
    </vehicle>
    <vehicle id="special_2-1_57" type="special" depart="18572" departLane="best" arrivalPos="random">
        <route edges="-152359 153490#2 153490#3 153490#4 153490#5 153387#0 153387#1 153387#2 -152628#1 -152628#0 -153384#1 -153384#0 -152177 -152176#2 -152176#1 -152176#0 -153383#0 -152250 -153385#1 -153385#0 -152251 -153412#5 -153329#5 -153329#4 -153329#3 -153329#2 -153329#1 -153329#0 152933#3 -153399#1 -153399#0 152649#0 152649#1 152649#2 152649#3 152649#4 152649#5 153406#0 153406#1 153406#2 152679 152678 152542 152647#0 152648#0 152648#1 152648#2 152648#3 152648#4 152648#5 152648#6 152353#2 152353#3 -152513#1"/>
    </vehicle>
    <vehicle id="special_1-1_111" type="special" depart="18614" departLane="best" arrivalPos="random">
        <route edges="152605#2 152169 152223 152453 152454#1 152454#2 152454#3 152454#4 -152453 -152223 -152169 -152605#2 -152605#1 -152605#0 -152667#10 -152667#9 -152667#8 -152667#7 -152667#6 -152667#5 -152667#4 152714 152174#0 152174#1 -152701#5 -152701#4 -152701#3 -152701#2 -152701#1 -152701#0 152229 152943#0 152793 152785#2 152167 152969#0 152969#1 152969#2 152969#3 152987#0 152987#1 152832#0 152832#1 152832#2 152832#3 152832#4 152832#5"/>
    </vehicle>
    <vehicle id="special_1-3_287" type="special" depart="18615" departLane="best" arrivalPos="random">
        <route edges="152941#2 152941#3 152941#4 152284 152589 152590#1 152590#2 152582#2 152582#3 152582#4 152454#2 152454#3 152454#4 -152453 -152223 -152169 -152605#2 -152605#1 -152605#0 -152667#10 -152667#9 -152667#8 -152667#7 -152667#6 -152667#5 -152667#4 -152667#3 -152667#2 -152667#1 152702#0 152702#1 -152775#5 -152775#4 -152775#3 -152775#2 -152775#0 152810#0 152810#1 152810#2 152820 152960#1 152960#2 152960#3 152960#4 152305 152312#0 152312#1 152312#2 -152309 152318#1 152318#2 152318#3 152139 152137#0 152138 152968 -152270 -152418 -152958 153476#1 153476#2 153476#3 153476#5 153476#6 153476#7 153476#8 153476#9 153476#10 153476#11 153476#12 153476#13 153476#14 153476#15 153476#16 153476#17 153476#18 153476#19 153476#20 153476#22 153476#23 153476#24 153476#25 153476#26 -152303 -153342 -152302 -153477#1 -152903"/>
    </vehicle>
    <vehicle id="special_1-3_120" type="special" depart="18620" departLane="best" arrivalPos="random">
        <route edges="-152777 152384 152816#0 152816#1 152816#2 152816#3 152831#0 152831#1 152831#2 152305 152312#0 152312#1 152312#2 -152309 152318#1 152318#2 -152308 152281 152530 -152330#5 -152330#4 -152330#3 -152330#2 -152330#1 -152330#0 153637 152405 -153007#6 -153456#6 -153456#5 -153456#4 -153456#3 -153456#2 -153456#1 -153456#0 -153451#4 -153451#3 -153451#2 -153451#1 -153451#0 -153452#1 153457"/>
    </vehicle>
    <vehicle id="special_1-3_196" type="special" depart="18622" departLane="best" arrivalPos="random">
        <route edges="152974 152887#1 152887#2 152900#1 152982#4 152973 -152895#1 -153476#0 152418 152270 152419#0 152419#1 152281 152530 -152330#5 -152330#4 -152330#3 -152330#2 -152330#1 -152330#0 153637 153634#1 153636#1 153002#0 153002#1 -153458#1 -153458#0 -153457"/>
    </vehicle>
    <vehicle id="special_1-3_106" type="special" depart="18650" departLane="best" arrivalPos="random">
        <route edges="152534#2 -152361 152361 152535#4 152535#6 152654#4 152670#3 152670#4 152282 -152290 -152761 -152291 -152800 -152292 -152794 152293 152385 -152206 152461 152311 152312#2 -152309 152318#1 152318#2 -152308 152281 152530 -152330#5 -152330#4 -152330#3 -152330#2 -152330#1 -152330#0 153637 153634#1 153636#1 153002#0 153002#1 -153458#1 -153458#0 -153457"/>
    </vehicle>
    <vehicle id="special_2-1_51" type="special" depart="18687" departLane="best" arrivalPos="random">
        <route edges="153387#3 153387#4 -152628#0 -153384#1 -153384#0 -152177 -152176#2 -152176#1 -152176#0 153383#1 153383#2 153383#3 153383#4 153383#5 -152246 153369#0 153369#1 152245 152565 152307 -153372#4 -153372#3 -153372#2 153480#0 153480#1 153480#2 153480#3 153480#4 153480#5 153480#6 153480#7 152216 -153378#2 -153378#1 -153378#0 152218 -152578#1 152172 152173 153375 152165#1 152347#0 152460 -152459#0"/>
    </vehicle>
    <vehicle id="special_1-1_109" type="special" depart="18700" departLane="best" arrivalPos="random">
        <route edges="-152814#10 -152814#9 -152814#8 -152812#5 -153437 153438 152814#9 152814#10"/>
    </vehicle>
    <vehicle id="special_1-1_222" type="special" depart="18701" departLane="best" arrivalPos="random">
        <route edges="152535#2 152535#4 152535#6 152654#4 152670#3 152670#4 152282 -152290 -152761 -152291 -152800 -152292 -152794 152293 152385 -152206 152461 152311 152312#2 152312#3 -152305 152960#5 152960#6 152960#7 152960#8 -153273#2 -153273#1 -152135#1 -152135#0 152802 152818#1 152818#2 152818#3 152388#0 152388#1 152777 152382 152771 -152769 152946 -152777"/>
    </vehicle>
    <vehicle id="special_1-1_259" type="special" depart="18714" departLane="best" arrivalPos="random">
        <route edges="152423 152206 -152385 -152293 152794 152292 152800 152291 152761 152290 152287 152654#1 -152662 -152289 -152762 -152787#2 -152787#1 -152787#0 152820 152960#1 152960#2 152960#3 152960#4 152960#5 152960#6 152960#7 152960#8 -153273#2 -153273#1 -152135#1 -152135#0 152802 152818#1 152818#2 152818#3 152388#0 152388#1 152777 152382 152771 -152769 152946 -152777"/>
    </vehicle>
    <vehicle id="special_1-2_273" type="special" depart="18716" departLane="best" arrivalPos="random">
        <route edges="152396#2 152458#2 152458#3 -152451 152874#1 152874#2 153638 152297#0 152297#0-AddedOffRampEdge 152297#1 152967 152816#2 152816#3 152816#4 152816#5 -152810#2 -152810#1 -152810#0 152775#0 152775#2 152775#3 152775#4 152775#5 -152702#1 -152702#0 152667#1 152667#2 152667#3 152667#4 152667#5 152667#6 152667#7 152667#8 152667#9 152667#10 152667#11 152605#1 152605#2 152169 152223 152453 152454#1 -152582#4 -152582#3 -152582#2 -152582#1 -152582#0 152576 152219 153365#0 153365#1 153365#3 153365#4 -153363#3 -153363#2 -153363#1"/>
    </vehicle>
    <vehicle id="special_1-3_21" type="special" depart="18726" departLane="best" arrivalPos="random">
        <route edges="152868 152935 152806 -152803 -152799 -152760 -152763 152776 152817#0 152817#1 152817#2 152817#3 152959#5 152959#1 152959#2 152959#3 -152821#2 -152821#1 -152821#0 152137#6 152137#7 -152139 152318#4 152318#1 152318#2 -152308 152281 152530 -152330#5 -152330#4 -152330#3 -152330#2 -152330#1 -152330#0 153637 153634#1 153636#1 153002#0 153002#1 -153458#1 152903"/>
    </vehicle>
    <vehicle id="special_1-3_52" type="special" depart="18726" departLane="best" arrivalPos="random">
        <route edges="152546 152767#3 152716 152381 -152775#0 152810#0 152810#1 152810#2 152820 152960#1 152960#2 152960#3 152960#4 152305 152312#0 152312#1 152312#2 -152309 152318#1 152318#2 -152308 152281 152530 -152330#5 -152330#4 -152330#3 -152330#2 -152330#1 -152330#0 153637 153634#1 153636#1 153002#0 152838 153005#1 152235 153338 153641"/>
    </vehicle>
    <vehicle id="special_1-1_228" type="special" depart="18727" departLane="best" arrivalPos="random">
        <route edges="152701#2 152780 152767#2 152767#3 152716 152381 -152775#0 152810#0 152810#1 152810#2 152787#0 152934 -152789#4 -152789#3 -152789#2 -152789#1 -152789#0 152468 152296 153640 153639 152874#4 152874#5 152874#0 152874#1 152875#0"/>
    </vehicle>
    <vehicle id="special_2-1_112" type="special" depart="18742" departLane="best" arrivalPos="random">
        <route edges="153006#0 153006#1 153006#2 153006#3 152168#0 152168#1 152399#1 152399#2 152399#3 -152891#1 -152891#0 152300 -152892#1 -152892#0 -153444#4 -153444#3 -153444#2 -153444#0 153440#1 153440#2 153440#3 153440#4 153440#5 153440#6 -152255#1 -152255#0 -153423#4 -153423#3 153410#0 153410#1 153410#2 153410#3 153410#4 153410#5 153410#6 153410#7 153410#8 153410#9 153331#4 153331#5 153331#6 153331#7 153331#8 153331#9 153331#10 153331#11 -153329#3"/>
    </vehicle>
    <vehicle id="special_1-1_247" type="special" depart="18781" departLane="best" arrivalPos="random">
        <route edges="152882 152942 152880#1 152880#2 152877 152869 152863 152868 152935 152806 -152803 -152799 -152760 -152763 152776 152817#0 152817#1 152817#2 152817#3 152959#5 152959#1 152959#2 152959#3 -152821#2 -152821#1 -152821#0 152137#6 152137#7 -152139 152318#4 152309 152312#3 152312#0 152271 152423 152206 -152385 -152293 152794 152292 152800 152291 152761 152290 152286 152669#0 152669#1 152363#2 -152607 -152170#1 -152170#0 -152224 152587#0 152587#1 152613 -152613 -152587#1 -152587#0"/>
    </vehicle>
    <vehicle id="special_1-1_9" type="special" depart="18819" departLane="best" arrivalPos="random">
        <route edges="-152782 -152801 152814#9 152814#10 152814#11 152759 152230 152785#0 152819 152944#2 152234 152701#0 152767#0 152767#1 152767#2 152767#3 152716 152381 -152775#0 152810#0 152810#1 152810#2"/>
    </vehicle>
    <vehicle id="special_3-1_144" type="special" depart="18839" departLane="best" arrivalPos="random">
        <route edges="153459#1 153458#1 153005#0 153005#1 152235 153338 153641 152330#0 152330#1 152330#2 152330#3 152330#4 152330#5 152166 -153006#3 -153006#2 -153006#1 -153006#0 -152899#1 -152899#0"/>
    </vehicle>
    <vehicle id="special_1-2_180" type="special" depart="18879" departLane="best" arrivalPos="random">
        <route edges="153639 152874#4 -152883#2 -152883#1 -152883#0 152975#1 -153560 152898#0 152898#1 152898#2 -152299 152857 152137#3 152137#4 152137#5 152137#6 152137#7 -152139 152318#4 152318#1 152318#2 -152308 152281 152530 -152330#5 -152330#4 -152330#3 -152330#2 -152330#1 -152330#0 153637 152405 -153007#6 -153456#6 -153456#5 -153456#4 -153456#3 -153456#2 -153456#1 -153456#0 153451#5 153435#0 153435#1 153435#2 153435#3 152416#1 152413#0 152413#1 152413#2 152413#3"/>
    </vehicle>
    <vehicle id="special_1-3_47" type="special" depart="18889" departLane="best" arrivalPos="random">
        <route edges="152693#1 -152491#5 -152712 152711#1 152711#2 152711#3 -152701#3 -152701#2 -152701#1 -152701#0 152229 152943#0 152943#1 -152814#11 -152814#10 -152814#9 -152814#8 -152814#7 -152814#6 -152814#5 -152814#4 -152814#3 -152814#2 -152814#1 -152814#0 152989 -152901#1 -152901#0 152399#3 152399#0 -152168#1 -152168#0 -152166 -152330#5 -152330#4 -152330#3 -152330#2 -152330#1 -152330#0 153637 153634#1 153636#1 153002#0 153002#1 -153458#1 -153458#0 -153459#0 -152256 153460 -153460 152256 153459#0 153459#1"/>
    </vehicle>
    <vehicle id="special_1-2_236" type="special" depart="18932" departLane="best" arrivalPos="random">