<?xml version="1.0" encoding="UTF-8"?>

<!-- generated on Thu Apr 26 16:59:00 2018 by Eclipse SUMO duarouter Version 1c6dcbf191
<configuration xmlns:xsi="http://www.w3.org/2001/XMLSchema-instance" xsi:noNamespaceSchemaLocation="http://sumo.dlr.de/xsd/duarouterConfiguration.xsd">

    <input>
        <net-file value="../scenario/in/most.net.xml"/>
        <additional-files value="../scenario/in/add/most.busstops.add.xml,../scenario/in/add/most.trainstops.add.xml,../scenario/in/add/most.parkings.add.xml,../scenario/in/add/basic.vType.xml"/>
        <route-files value="out/most.buses.flows.xml,out/most.trains.flows.xml,out/most.pedestrian.trips.xml"/>
    </input>

    <output>
        <output-file value="../scenario/in/route/most.pedestrian.rou.xml"/>
        <vtype-output value="/dev/null"/>
        <alternatives-output value="../scenario/in/route/most.pedestrian.rou.alt.xml"/>
    </output>

    <processing>
        <ignore-errors value="true"/>
        <max-alternatives value="5"/>
        <remove-loops value="true"/>
        <repair value="true"/>
        <repair.from value="true"/>
        <repair.to value="true"/>
        <routing-threads value="4"/>
        <routing-algorithm value="dijkstra"/>
    </processing>

    <time>
        <begin value="0"/>
        <end value="84600"/>
    </time>

    <report>
        <verbose value="true"/>
        <log value="person.dua.log"/>
    </report>

</configuration>
-->

<routes xmlns:xsi="http://www.w3.org/2001/XMLSchema-instance" xsi:noNamespaceSchemaLocation="http://sumo.dlr.de/xsd/routes_file.xsd">
    <person id="pedestrian_PT2_556" depart="18014.00">
        <walk edges="1557 -1375 1371 728#1 1078 730#5 1087 787#1 787#2 787#3 787#4 787#5 816#1 998 856#0 298#2 929#7 1119 812#0 1404#1 -1404#2 1507#0 1507#1 1507#2 -829#7 829#8 902#1 811#0 -811#1 -790#0"/>
    </person>
    <person id="pedestrian_PT2_1718" depart="18023.00">
        <walk edges="1524 -494#4 351#1 519#3 519#2 519#1 582#11 582#10 582#9 582#8 582#7 582#6 582#5 582#4 582#3" busStop="155334"/> <!-- Monte-Carlo (TAM) | Monte-Carlo (Tourisme) -->
        <ride busStop="155427" lines="2:Jardin" intended="bus_2:Jardin.0" depart="19154.00"/> <!-- Rotondes -->
        <walk edges="-730#4 1072 787#3" busStop="155491"/> <!-- Parc Princesse Antoinette -->
        <ride busStop="155409" lines="3:Fontvieille" intended="bus_3:Fontvieille.0" depart="19848.00"/> <!-- Athanee -->
        <walk edges="856#0 298#2 929#7 1119 812#0 1404#1 -1404#2 1507#0 1507#1 1507#2 -829#7 829#8 902#1 811#0 811#1 790#1 790#2"/>
    </person>
    <person id="pedestrian_PT1_1892" depart="18057.00">
        <walk edges="683#0 1086 -858#1 1519 -726#2 857#1 -703#0 852 705#4 705#3 705#2 705#1 -319#0 187#1 1083#1 733#1 733#2" busStop="155410"/> <!-- Place d'Armes (Port) -->
        <ride busStop="155336" lines="1:SaintRoman" intended="bus_1:SaintRoman.1" depart="19707.00"/> <!-- Princesse Stephanie -->
        <walk edges="732#0"/>
    </person>
    <person id="pedestrian_walk_204" depart="18072.00">
        <walk edges="584#1 584#0 570 440#8 439#0 569#2 565 678 -703#2 -703#1 -703#0 857#1 -726#2 726#2 857#2 857#3 736 879#1 879#2 363 366#2 879#4 879#5 997 -1480#3 1082#1 1082#0 -888#5 907#0 1074#1"/>
    </person>
    <person id="pedestrian_PT1_2055" depart="18077.00">
        <walk edges="730#6 730#7 730#8 730#9 730#10 730#11 675"/>
    </person>
    <person id="pedestrian_PT1_2249" depart="18081.00">
        <walk edges="1371 -1369#0 -881 1455 1332#8 596#1 596#0 890#1 -624#0 -624#1 -622#3 617#3 617#4 617#5 619 620 -582#1 -582#2 -582#3 -582#4 -582#5 -582#6 -582#7" busStop="155353"/> <!-- Saint-Charles -->
        <ride busStop="155417" lines="1:SaintRoman" intended="bus_1:SaintRoman.0" depart="19603.00"/> <!-- Carmes -->
        <walk edges="-494#3 1523 529#1 1024#0 1026 860#0 -884#0 -352 353#1"/>
    </person>
    <vehicle id="pedestrian_SH3_57_0" type="shared" depart="triggered">
        <route edges="-922#4 -922#3 -922#2 -922#1 -922#0 -1363#2 -1363#1 -1363#0 1379#6 1379#7 1361#1 650#0 -652#2 -652#1 -652#0 1319#0 1319#1 1494#0 1494#1 1494#2 1320 1315#1 1315#2 -542#1 -542#0 -1312#5 -1312#4 -1312#3 -1312#2 -1312#1 -1312#0 -1311#0 -1313#0 -1250#5 -1250#4 -1252#11 -1252#10 -1252#9 -1252#8 -1252#7 -1252#6 -1252#5 -1252#4 -1252#2 -1252#1 -1252#0 -1343#1 -1343#0 1341#14 1341#15 1341#16 918 920 622#0 622#1 622#2 622#3 617#3 617#4 617#5 619 620 572#0 572#1 572#2 -593#5 -593#4 -593#3 -593#2 -593#1 -593#0 586 569#1 569#2 569#3 570 584#0 585#0 585#1"/>
    </vehicle>
    <person id="pedestrian_SH3_57" depart="18117.00">
        <ride from="-922#4" to="585#1" lines="pedestrian_SH3_57_0"/>
    </person>
    <vehicle id="pedestrian_SH2_651_0" type="shared" depart="triggered">
        <route edges="918 -1486#3 -1488 -1341#16 -1341#15 -1341#14 1343#0 1343#1 1252#0 1252#1 1252#2 1252#4 917#0 917#2 917#3 917#4 917#5 917#6 917#7 917#8 -1327#0"/>
    </vehicle>
    <person id="pedestrian_SH2_651" depart="18120.00">
        <ride from="918" to="-1327#0" lines="pedestrian_SH2_651_0"/>
    </person>
    <person id="pedestrian_walk_495" depart="18123.00">
        <walk edges="440#0 440#2 440#3 439#2 439#0 569#2 565 678 -703#2 -703#1 -703#0 857#1 -726#2 726#2 857#2 1518 863#1 863#2 111 369#0 -369#0 862#0"/>
    </person>
    <person id="pedestrian_PT2_1616" depart="18123.00">
        <walk edges="264 1349#2 1349#3 1349#4 1128#0 1127 1330 1344 1427#0 1427#1 1427#2 1427#3 1047#0 1047#1 1047#2 -617#1 -617#0 111" busStop="155339"/> <!-- Pont Sainte-Devote -->
        <ride busStop="155427" lines="2:Jardin" intended="bus_2:Jardin.0" depart="19406.00"/> <!-- Rotondes -->
        <walk edges="-730#4 1072 787#3" busStop="155491"/> <!-- Parc Princesse Antoinette -->
        <ride busStop="155409" lines="3:Fontvieille" intended="bus_3:Fontvieille.0" depart="19848.00"/> <!-- Athanee -->
        <walk edges="856#0 298#2 929#7 1119 812#0 1404#1 -1404#2 1507#0 1507#1 1507#2 -829#7 829#8 902#1 811#0 811#1 790#1 790#2 -293#0 1146#6 1216#1 1216#0 1212#2 1145#1 1145#2 1145#3"/>
    </person>
    <person id="pedestrian_walk_1337" depart="18138.00">
        <walk edges="675 730#11 864#2 864#1 1073#1 1073#2 -888#3 -888#4 1082#0 1082#1 -1480#3 997 879#5 -747#2 721#1 721#2 1190 1080 1194#1 1194#0 1085 732#1 283 -705#0 -319#0 -319#1 -279#0 -275"/>
    </person>
    <person id="pedestrian_PT2_910" depart="18142.00">
        <walk edges="-1404#7 -1404#6 -1404#5 -1404#3 -1404#2 1404#1 812#0 1119 929#7 298#2 856#0 998 816#1" busStop="155347"/> <!-- Hopital -->
        <ride busStop="155334" lines="5:Larvotto" intended="bus_5:Larvotto.0" depart="18833.00"/> <!-- Monte-Carlo (TAM) | Monte-Carlo (Tourisme) -->
        <ride busStop="155458" lines="1:SaintRoman" intended="bus_1:SaintRoman.0" depart="19510.00"/> <!-- Saint-Roman (Bus 1) -->
        <walk edges="242 -494#0"/>
    </person>
    <vehicle id="pedestrian_SH1_609_0" type="shared" depart="triggered">
        <route edges="1256#3 1256#4 1256#5 1256#6 1256#7 -1248#12 -1248#11 -1248#10 -1248#9 -958 1248#11 1248#12 -1256#7 -1256#6 -1256#5 -1256#4 -1256#3 -1256#2 -1256#1 -1256#0 -1372#0 -1369#3 -1369#2 -1369#1 1371 728#1 728#2 728#3 728#4 728#5 730#8 730#9 730#10 730#11 675 735 863#2 617#0 683#0 683#1 683#2 -455 -858#2 -858#1 -858#0 726#1 726#2"/>
    </vehicle>
    <person id="pedestrian_SH1_609" depart="18151.00">
        <ride from="1256#3" to="726#2" lines="pedestrian_SH1_609_0"/>
    </person>
    <person id="pedestrian_PT1_110" depart="18170.00">
        <walk edges="-240#0 240#0 360#3 439#9" busStop="155375"/> <!-- Larvotto -->
        <ride busStop="155343" lines="5:Hopital" intended="bus_5:Hopital.0" depart="18812.00"/> <!-- Spelugues -->
        <walk edges="593#0 1481 585#3 585#2 585#1 585#0 -584#1 257#1"/>
    </person>
    <person id="pedestrian_PT1_1525" depart="18186.00">
        <walk edges="-369#0 369#0 111 863#2 863#1 1518 857#2 726#2 -726#2 857#1 -703#0 703#0 857#0 732#5 732#4 732#3 732#2"/>
    </person>
    <person id="pedestrian_PT1_2146" depart="18191.00">
        <walk edges="562#3 562#2 562#1 562#0 1170#0 1004 -576 -582#3 -582#2 -582#1 620 619 617#5 617#4 617#3 -617#2 -617#1 -617#0 111" busStop="155339"/> <!-- Pont Sainte-Devote -->
        <ride busStop="155411" lines="2:Jardin" intended="bus_2:Jardin.0" depart="19406.00"/> <!-- Belgique -->
        <walk edges="-730#10 730#11 675"/>
    </person>
    <person id="pedestrian_walk_1568" depart="18192.00">
        <walk edges="1256#3 1256#2 1256#1 1256#0 -1368#0 1369#3 1130 1370#1 1543#1 1543#0 1463#0 -1412#0 -1412#1 1455 1332#8 596#1 596#0 890#1 -624#0 -624#1 -622#3 617#3 617#4 617#5 619 620 -582#1 -582#2 -582#3 -582#4 -582#5 -582#6 -582#7 -582#8 -582#9 -582#10 567#0 567#1 1028#0 1028#1 520#9"/>
    </person>
    <person id="pedestrian_PT2_208" depart="18214.00">
        <walk edges="-1412#1 1455 1332#8 596#1 596#0 890#1 -624#0 -624#1 -622#3 617#3 617#4 617#5 619 620 582#1 582#2 582#3 582#4 582#5 582#6 582#7 582#8 582#9 582#10 582#11" busStop="155421"/> <!-- Place des Moulins -->
        <ride busStop="155417" lines="1:SaintRoman" intended="bus_1:SaintRoman.0" depart="19817.00"/> <!-- Carmes -->
        <walk edges="-494#3 1523 529#1 1024#0"/>
    </person>
    <person id="pedestrian_PT1_1035" depart="18217.00">
        <walk edges="743#1 1073#2 -888#3 -888#4 1082#0 1082#1 -1480#3 997 879#5 879#4 366#2 363 879#2 879#1 736" busStop="155414"/> <!-- Princesse Florestine -->
        <ride busStop="155406" lines="3:Otto" intended="bus_3:Otto.0" depart="19362.00"/> <!-- Place d'Armes (Charles III) -->
        <walk edges="-737#2 737#0 15#5 15#4 796 1576 791#4 -800#2 1221 -789"/>
    </person>
    <person id="pedestrian_PT2_52" depart="18218.00">
        <walk edges="1511#0 1511#2 939#2 -1277#0 1277#1 1277#2 1277#3 1277#4 1280 -1278 1279 1288#0 -1247#0 -1247#1 -1247#2 1247#3 1247#4 1300#1 1408#0 1408#1 1408#2 1408#3 1408#4 1408#5 1408#6 1408#7 497#1 243 494#0" busStop="155455"/> <!-- Saint-Roman -->
        <ride busStop="155352" lines="100:Nice" intended="bus_100:Nice.4" depart="24895.00"/> <!-- Place Sainte-Devote (Gare) -->
        <walk edges="736 879#1 879#2 363 366#2 879#4 879#5 879#6 879#7 879#8"/>
    </person>
    <person id="pedestrian_PT1_1127" depart="18220.00">
        <walk edges="-787#1 -787#0 1484#3 743#0 743#1 888#0 701#2 709"/>
    </person>
    <person id="pedestrian_walk_776" depart="18231.00">
        <walk edges="1480#1 1480#0 -888#2 1073#2 743#0"/>
    </person>
    <person id="pedestrian_walk_1758" depart="18231.00">
        <walk edges="-502#0 -502#1 502#2 494#2 -494#3 -494#4 351#1 519#3 519#2 519#1 582#11 582#10 582#9 582#8 582#7 582#6 582#5 582#4 582#3 582#2 582#1 620 619 617#5 617#4 617#3 617#2 617#1 617#0 863#2 863#1 863#0 -888#0 -888#1 -888#2 -888#3 -888#4 1082#0"/>
    </person>
    <vehicle id="pedestrian_SH1_167_0" type="shared" depart="triggered">
        <route edges="775 689 688 -679 692 733#0 733#1 733#2 733#3 878#4 695 734#0 734#1 734#2 734#3 734#4 732#0 732#1 732#2 732#3 732#4 732#5 857#0 857#1 -726#2 -726#1 -726#0 691#0 -588#2 867#0 867#1 604#1 604#2"/>
    </vehicle>
    <person id="pedestrian_SH1_167" depart="18238.00">
        <ride from="775" to="604#2" lines="pedestrian_SH1_167_0"/>
    </person>
    <person id="pedestrian_PT1_1322" depart="18258.00">
        <walk edges="784 -866 -782 -719 -715 -676" busStop="155408"/> <!-- Monaco Ville (le Rocher) -->
        <ride busStop="155410" lines="2:Jardin" intended="bus_2:Jardin.0" depart="18546.00"/> <!-- Place d'Armes (Port) -->
        <walk edges="733#2 733#3 878#4 695 734#0 734#1 -186 737#0 15#5 15#4 796 1576 791#4 -800#2 800#2 791#5 1169#0 -885#0 803#1"/>
    </person>
    <person id="pedestrian_walk_754" depart="18273.00">
        <walk edges="774 294#3 294#2 790#3 790#2 790#1 811#1 811#0 902#1 829#8 -829#7 1507#2 1507#1 1507#0 -1404#2 1404#1 812#0 1119 929#7 298#2 856#0 998 816#1 816#2 1097 -748#4 739#0 739#1 1074#0 1074#1 907#0 -888#5 1082#0 1082#1 -712#1"/>
    </person>
    <person id="pedestrian_PT1_989" depart="18277.00">
        <walk edges="884#1 884#0 860#0 1026 1024#0 529#1 1523 494#4" busStop="155425"/> <!-- Carmes -->
        <ride busStop="155354" lines="1:Monaco" intended="bus_1:Monaco.0" depart="18542.00"/> <!-- Monte-Carlo -->
        <walk edges="618#1 618#0 620 619 617#5 617#4"/>
    </person>
    <person id="pedestrian_PT2_493" depart="18283.00">
        <walk edges="-808#1 295#3 -818#0 818#0 295#2 1131#1 1131#0 819#0 298#0 -816#0 -816#1 816#1 998 856#0 298#2 929#7 1119 -812#0 -1404#0 443#0" busStop="155479"/> <!-- Cimetiere -->
        <ride busStop="155407" lines="100:Menton" intended="bus_100:Menton.0" depart="19977.00"/> <!-- Place d'Armes (Charles III) -->
        <walk edges="737#2 878#3 -733#3 -733#2" busStop="155376"/> <!-- Place d'Armes (vers Monaco Ville) -->
        <ride busStop="155408" lines="2:Monaco" intended="bus_2:Monaco.0" depart="20419.00"/> <!-- Monaco Ville (le Rocher) -->
        <walk edges="-676 690 775 793 1168"/>
    </person>
    <person id="pedestrian_PT2_187" depart="18287.00">
        <walk edges="-770#0 1384#6 -928#6 302 1574 223#0" busStop="155311"/> <!-- 155311 -->
        <ride busStop="155347" lines="M3:Hospital" intended="bus_M3:Hospital.1" depart="20107.00"/> <!-- Hopital -->
        <walk edges="816#1 998 856#0 298#2 929#7 1119 -812#0 -1404#0 443#0" busStop="155479"/> <!-- Cimetiere -->
        <ride busStop="155407" lines="100:Menton" intended="bus_100:Menton.1" depart="21177.00"/> <!-- Place d'Armes (Charles III) -->
        <walk edges="737#2 737#0 15#5 15#4 796 1577"/>
    </person>
    <person id="pedestrian_PT1_173" depart="18288.00">
        <walk edges="-520#0 524#1 524#0 -519#2 -519#1 -519#0 -582#10 -582#9 -568" busStop="155426"/> <!-- Saint-Charles -->
        <ride busStop="155414" lines="1:Monaco" intended="bus_1:Monaco.0" depart="18965.00"/> <!-- Princesse Florestine -->
        <walk edges="736 879#1 879#2 363 366#2 879#4 879#5 997 -1480#3 -712#1 -712#0 -707#0"/>
    </person>
    <person id="pedestrian_walk_1158" depart="18296.00">
        <walk edges="294#1 294#0 358#2 292#2 1169#1 885#0 803#0 895#3 -817#0 817#1 902#4 893 -812#1 -812#0 1119 929#7 298#2 856#0 998 816#1 816#2 -787#4 -787#3 -787#2 -787#1 -787#0 1484#3 743#0 743#1 -888#0 863#0 863#1 863#2 111 369#0"/>
    </person>
    <vehicle id="pedestrian_SH1_573_0" type="shared" depart="triggered">
        <route edges="701#1 701#2 888#0 -743#1 -743#0 1484#0 1484#1 1484#2 1484#3 743#0 743#1 -888#0"/>
    </vehicle>
    <person id="pedestrian_SH1_573" depart="18303.00">
        <ride from="701#1" to="-888#0" lines="pedestrian_SH1_573_0"/>
    </person>
    <person id="pedestrian_PT1_1807" depart="18306.00">
        <walk edges="1519 -858#1 1086 683#0 -617#1 1047#2 1047#1"/>
    </person>
    <vehicle id="pedestrian_SH3_370_0" type="shared" depart="triggered">
        <route edges="-1264 -1269#0 911#1 456 -913 -1422 -1285#2 -1282#2 -1282#1 -1282#0 -1287#1 -1287#0 851#3 851#0 851#1 -1244#4 -1244#3 -1244#2 -1244#1 -1244#0 -1291#3 470 -493#4 -493#3 -493#2 -493#1 -493#0 238#1 -491#1 -491#0 -499#2 -499#1 -499#0 521#1 257#3 257#0 257#1 -584#1 585#0 585#1 585#2 585#3 569#0 261 -577 -703#2 -703#1 -703#0"/>
    </vehicle>
    <person id="pedestrian_SH3_370" depart="18327.00">
        <ride from="-1264" to="-703#0" lines="pedestrian_SH3_370_0"/>
    </person>
    <person id="pedestrian_SH2_15" depart="18338.00">
        <walk edges="1557 -1375 1371 728#1 1078 730#5 1087 787#1 1081 888#4 888#5 -888#5 1082#0 1082#1 -1480#3 997 879#5 -747#2 721#1 -721#2"/>
    </person>
    <person id="pedestrian_PT1_1324" depart="18344.00">
        <walk edges="675 730#11 730#10 730#9 730#8 730#7 1079#2"/>
    </person>
    <person id="pedestrian_walk_1467" depart="18349.00">
        <walk edges="1442#1 1442#0 -860#3 -860#2 1024#1 1024#0 529#1 1523 -494#4 351#1 519#3 519#2 519#1 582#11 582#10 582#9 582#8 582#7 582#6 582#5 582#4 582#3 582#2 582#1 620 619 617#5 617#4 617#3 617#2 617#1 617#0 863#2 863#1 863#0 -888#0 743#1 743#0 1484#3 -787#0 -787#1 787#2 787#3 787#4 787#5"/>
    </person>
    <person id="pedestrian_walk_82" depart="18350.00">
        <walk edges="888#3 1081 787#2 787#3 787#4 787#5 816#1 998 856#0 298#2 929#7 1119 -812#0 -812#1 893 902#4 817#1 804#2 804#1 894"/>
    </person>
    <person id="pedestrian_SH3_462" depart="18363.00">
        <walk edges="-1265 1264 -1269#0 911#1 456 -913 -1422 -1285#2 -1282#2 -1282#1 -1282#0 1287#1 1287#0 851#2 1244#4 1244#3 1244#2 1120 1291#2 470 -493#4 1527 1016#1 489#3 489#4 23 1303#1 1303#2 355#0 355#1 355#2 360#1 440#0 440#2 440#3 439#2 439#0 569#2 565 678 226 1479#1 1479#0 705#4 705#3 705#2 705#1 -319#0 187#1 1083#1 -733#1 -733#2 -733#3 878#3 737#2 737#0 15#5 15#4 796 1576 791#4 -800#2 800#2 791#5 1169#0 1169#1 1169#2 1218#1 1150 1214 1148#0 1212#1 1212#2 1145#1 1145#2"/>
    </person>
    <person id="pedestrian_PT2_1693" depart="18377.00">
        <walk edges="831 -1393#2 -1393#3 1390#2 1390#3 1390#4 827 1469#0 1469#1 -1404#6 -1404#5 -1404#3 -1404#2 -1404#1 -1404#0 443#0 1476#1 1476#0 -815#1 -1491#2 -1491#1"/>
    </person>
    <person id="pedestrian_PT2_2089" depart="18406.00">
        <walk edges="-1275#1 1280 -1278 1279 1288#0 -1247#0 -1247#1 -1247#2 -1247#3 1008 468#3 1437 1438 -1244#1" busStop="155483"/> <!-- La Tranchee -->
        <ride busStop="155381" lines="100:Nice" intended="bus_100:Nice.2" depart="22342.00"/> <!-- Monte-Carlo (TAM) -->
        <walk edges="618#1 618#0 582#1 582#2 582#3" busStop="155334"/> <!-- Monte-Carlo (TAM) | Monte-Carlo (Tourisme) -->
        <ride busStop="155382" lines="5:Hopital" intended="bus_5:Hopital.3" depart="23025.00"/> <!-- Cremaillere -->
        <walk edges="630#2 -600 859 1334#2 1334#1 1057 1451 1452 1424 1449 -1341#6 1450#1 -917#3 -917#4 1052"/>
    </person>
    <vehicle id="pedestrian_SH2_132_0" type="shared" depart="triggered">
        <route edges="-1505#0 306#1 306#2 306#3 223#0 223#1 223#2 223#3 223#4 223#5 223#6 223#7 223#8 223#9 223#10 295#1 295#2 818#0 818#1 908 730#0 730#1 730#2 730#3 730#4 730#5 730#6 730#7 730#8 730#9 730#10 730#11 675 735 863#2 617#0 617#1 617#2 617#3 617#4"/>
    </vehicle>
    <person id="pedestrian_SH2_132" depart="18424.00">
        <ride from="-1505#0" to="617#4" lines="pedestrian_SH2_132_0"/>
    </person>
    <vehicle id="pedestrian_SH3_418_0" type="shared" depart="triggered">
        <route edges="844 1405#1 194 1263 195 -1404#27 -1404#26 -1404#25 -1404#24 -1404#23 -1404#21 -1404#20 -1404#19 -1404#18 -1404#17 -1404#16 -1404#13 -1404#12 -1404#11 -1404#10 -1404#9 -1404#8 -1404#7 -1404#6 -1404#5 -1404#3 -1404#2 -1404#1 812#1 812#2 902#0 902#1 902#2 902#3 -817#1 -804#2 -804#1 -804#0 815#0 1491#3 1491#4 -789"/>
    </vehicle>
    <person id="pedestrian_SH3_418" depart="18434.00">
        <ride from="844" to="-789" lines="pedestrian_SH3_418_0"/>
    </person>
    <vehicle id="pedestrian_SH1_233_0" type="shared" depart="triggered">
        <route edges="888#0 -743#1 -743#0 1484#0 864#0 864#1 864#2 730#11 675 735 863#2 617#0 683#0 683#1 683#2 683#3 632 580 691#3 691#4"/>
    </vehicle>
    <person id="pedestrian_SH1_233" depart="18474.00">
        <ride from="888#0" to="691#4" lines="pedestrian_SH1_233_0"/>
    </person>
    <vehicle id="pedestrian_SH2_239_0" type="shared" depart="triggered">
        <route edges="-810#1 -810#0 1378 -1404#1 -1404#0 315 162 316#0 316#1 201 211#3 211#4 202 205#3 -197 -747#2 -747#1 -747#0 732#4 732#5 857#0 857#1 -726#2 -726#1 -726#0 691#0 691#2 691#3 691#4 691#5 -618#1 -618#0 582#1 582#2 582#3 582#4 582#5 582#6 582#7 582#8 582#9 582#10 582#11 519#1 519#2 524#0 531 520#2 520#3 520#4 520#5 520#6 520#7 520#8 520#9"/>
    </vehicle>
    <person id="pedestrian_SH2_239" depart="18475.00">
        <ride from="-810#1" to="520#9" lines="pedestrian_SH2_239_0"/>
    </person>
    <person id="pedestrian_PT2_1047" depart="18488.00">
        <walk edges="351#1 -494#4 1524 -499#1 -527"/>
    </person>
    <person id="pedestrian_PT2_2112" depart="18507.00">
        <walk edges="1064#1 1064#0 -394#5 -394#3 -394#2 -394#1 -394#0 -617#4 617#3 -696 683#1 1086 858#1"/>
    </person>
    <person id="pedestrian_PT1_2178" depart="18509.00">
        <walk edges="929#6 929#7 298#2 856#0 998 816#1 816#2 -787#4 -787#3 -787#2 -787#1 -787#0 1484#3 743#0 1073#1 864#1 864#2 730#11 675 735"/>
    </person>
    <person id="pedestrian_PT1_1197" depart="18517.00">
        <walk edges="907#0 888#5 888#4 888#3 888#2 888#1 888#0"/>
    </person>
    <person id="pedestrian_PT2_2187" depart="18517.00">
        <walk edges="-468#1 -468#0 1300#1 1408#0 1408#1 1408#2 1408#3 1408#4 1408#5 1408#6 1408#7 497#1 243 494#0" busStop="155455"/> <!-- Saint-Roman -->
        <ride busStop="155352" lines="100:Nice" intended="bus_100:Nice.0" depart="20095.00"/> <!-- Place Sainte-Devote (Gare) -->
        <walk edges="736 879#1 879#2 363 -366#0"/>
    </person>
    <person id="pedestrian_PT2_1930" depart="18518.00">
        <walk edges="489#3 489#4 23 -1303#0 241 491#1 499#3 499#2 -499#1 1524 -494#4 351#1 519#3 519#2 -519#1 -519#0" busStop="155420"/> <!-- Place des Moulins -->
        <ride busStop="155354" lines="1:Monaco" intended="bus_1:Monaco.1" depart="20055.00"/> <!-- Monte-Carlo -->
        <walk edges="618#1" busStop="155381"/> <!-- Monte-Carlo (TAM) -->
        <ride busStop="155365" lines="100:Nice" intended="bus_100:Nice.0" depart="20463.00"/> <!-- Place d'Armes (TAM) -->
        <walk edges="-737#2 737#0 15#5 15#4 796 1576" busStop="155380"/> <!-- Fontvieille - Centre Commercial -->
        <ride busStop="155394" lines="4:SaintRoman" intended="bus_4:SaintRoman.2" depart="21097.00"/> <!-- Papalins -->
        <walk edges="348 358#0 -885#1 1169#1 -292#1"/>
    </person>
    <vehicle id="pedestrian_SH2_129_0" type="shared" depart="triggered">
        <route edges="-300#2 -300#1 -300#0 223#3 223#4 223#5 223#6 223#7 223#8 -927#3 -927#2 -927#1 -927#0 -816#1 -816#0 298#0 298#1 298#2 856#0 856#1 856#2 316#1 201 211#3 17 15#0 15#1 15#2 15#3 15#4 15#5 737#0 737#2 878#3 -733#3 -733#2 -733#1 -733#0 -692 679 -688 -689 690 715 719 -722 -704 -785 -780 -786"/>
    </vehicle>
    <person id="pedestrian_SH2_129" depart="18532.00">
        <ride from="-300#2" to="-786" lines="pedestrian_SH2_129_0"/>
    </person>
    <vehicle id="pedestrian_SH2_29_0" type="shared" depart="triggered">
        <route edges="1315#6 1348#0 1348#1 1348#2 1348#3 1348#4 1348#5 1348#6 1348#7 1340#3 1340#4 -1250#5 -1250#4 -1250#3 -1250#2 -1250#1 -1250#0 850#3 -1327#1 -1327#0 563#0 563#1 563#2 563#3 563#4 563#5 1334#0 1334#1 1334#2 595 594 447 561#0 562#0 562#1 562#2 562#3 562#4 562#5 562#6 247#2 247#3 247#4 247#1 -562#6 -562#5 -562#4 -562#3 -562#2 -562#1"/>
    </vehicle>
    <person id="pedestrian_SH2_29" depart="18535.00">
        <ride from="1315#6" to="-562#1" lines="pedestrian_SH2_29_0"/>
    </person>
    <person id="pedestrian_PT2_230" depart="18552.00">
        <walk edges="-1299#3 1299#3 1013 1309#2 1309#3 1309#4 1309#5 1309#6 1309#7 -1311#1 1313#1 1029#1 -503#1 -503#2 1164 1440 1426 1302#10 1028#2 1028#1 1028#0 567#1 567#0 -582#10 -582#9 -568" busStop="155426"/> <!-- Saint-Charles -->
        <ride busStop="155337" lines="4:Fontvieille" intended="bus_4:Fontvieille.2" depart="21840.00"/> <!-- Castelleretto -->
        <walk edges="888#4 1081 787#2 1072 -730#3"/>
    </person>
    <vehicle id="pedestrian_SH1_705_0" type="shared" depart="triggered">
        <route edges="242 494#1 494#2 494#3 494#4 351#2 351#3 351#4 -350 -519#2 -519#1 -519#0 -582#10 -582#9 -582#8 -582#7 -582#6 -582#5 -582#4 630#1 630#2 630#3 -617#5 -617#4 -617#3 -617#2 -617#1 -617#0 111 862#0 862#1 -730#11 -864#2 -864#1 -864#0 1484#1 1484#2 787#0 787#1 787#2 787#3 -748#6 -748#5"/>
    </vehicle>
    <person id="pedestrian_SH1_705" depart="18553.00">
        <ride from="242" to="-748#5" lines="pedestrian_SH1_705_0"/>
    </person>
    <person id="pedestrian_walk_53" depart="18557.00">
        <walk edges="-679 -692 -733#0 -733#1 -733#2 -733#3 878#3 737#2 737#0 15#5 15#4 1225 1476#1 443#0 -1404#0 -812#0 1119 929#7 298#2 856#0 856#1"/>
    </person>
    <person id="pedestrian_PT1_364" depart="18559.00">
        <walk edges="582#11 582#10 582#9 582#8 582#7 582#6 582#5 582#4 582#3" busStop="155334"/> <!-- Monte-Carlo (TAM) | Monte-Carlo (Tourisme) -->
        <ride busStop="155427" lines="2:Jardin" intended="bus_2:Jardin.0" depart="19154.00"/> <!-- Rotondes -->
        <walk edges="-730#4 1072 787#3" busStop="155491"/> <!-- Parc Princesse Antoinette -->
        <ride busStop="155409" lines="3:Fontvieille" intended="bus_3:Fontvieille.0" depart="19848.00"/> <!-- Athanee -->
        <walk edges="856#0 298#2 929#7 1119 -812#0 -1404#0 443#0 443#1"/>
    </person>
    <person id="pedestrian_SH3_818" depart="18571.00">
        <walk edges="1264 -1269#0 911#1 456 -913 -1422 -1285#2 -1282#2 -1282#1 -1282#0 1287#1 1287#0 851#2 1244#4 1244#3 1244#2 1120 1291#2 470 -493#4 -493#3 -493#2 -493#1 -493#0 238#1 -491#1 -491#0 -499#2 -499#1 -499#0 521#1 257#3 257#0 579#0 579#1 579#2 1039#1 1039#0 582#7 582#6 582#5 582#4 582#3 582#2 582#1 -618#0 -618#1 858#5 -858#4 -858#2 -858#1 1519 726#2 857#2 857#3 736 879#1 879#2 363 366#2 879#4 747#2 721#1 721#2 1190 1080 1194#2"/>
    </person>
    <person id="pedestrian_walk_578" depart="18577.00">
        <walk edges="-858#0 -858#1 1086 683#0 617#0 111 369#0 -369#0 862#0 862#1 -730#11 730#11 675"/>
    </person>
    <person id="pedestrian_walk_735" depart="18587.00">
        <walk edges="-856#1 998 816#1 816#2 -787#4 -787#3 -787#2 -787#1 -787#0 1484#3 743#0 1073#1 864#1 864#2 -730#11 862#1 862#0"/>
    </person>
    <person id="pedestrian_PT1_707" depart="18592.00">
        <walk edges="-499#1 1524 -494#4 351#1 519#3 519#2 -519#1 -519#0" busStop="155420"/> <!-- Place des Moulins -->
        <ride busStop="155339" lines="4:Fontvieille" intended="bus_4:Fontvieille.0" depart="19358.00"/> <!-- Pont Sainte-Devote -->
        <walk edges="111 863#2 863#1 1518 857#2"/>
    </person>
    <person id="pedestrian_PT1_1695" depart="18592.00">
        <walk edges="863#1 1518 857#3 736" busStop="155414"/> <!-- Princesse Florestine -->
        <ride busStop="155406" lines="3:Otto" intended="bus_3:Otto.0" depart="19362.00"/> <!-- Place d'Armes (Charles III) -->
        <walk edges="-737#2 -186 734#1 734#0 695 878#4 733#3 733#2" busStop="155410"/> <!-- Place d'Armes (Port) -->
        <ride busStop="155408" lines="1:Monaco" intended="bus_1:Monaco.0" depart="19962.00"/> <!-- Monaco Ville (le Rocher) -->
        <walk edges="-676 690 775 793"/>
    </person>
    <vehicle id="pedestrian_SH1_289_0" type="shared" depart="triggered">
        <route edges="-566 -868 -576 -582#3 -582#2 -582#1 618#0 618#1 -691#5 -691#4 -691#3 -691#2 -691#0 726#0 726#1 726#2 857#2 857#3 736 879#1 879#2 879#3 879#4 879#5 879#6 879#7 879#8 879#9 879#11 878#1 878#2 878#3 -733#3 -733#2 -733#1 -733#0 -692 777 779 778 -806 783 408 854 788"/>
    </vehicle>
    <person id="pedestrian_SH1_289" depart="18600.00">
        <ride from="-566" to="788" lines="pedestrian_SH1_289_0"/>
        <walk edges="788 1142#1 1142#0 1141#3"/>
    </person>
    <person id="pedestrian_PT1_1555" depart="18611.00">
        <walk edges="1150 1218#1 1218#2 292#0 -790#2 560" busStop="155393"/> <!-- Heliport -->
        <ride busStop="155392" lines="4:SaintRoman" intended="bus_4:SaintRoman.0" depart="18873.00"/> <!-- Castelleretto -->
        <walk edges="-888#2 -888#3 -888#4 -888#5 907#0 1074#1 708#1"/>
    </person>
    <person id="pedestrian_walk_1246" depart="18614.00">
        <walk edges="712#1 1082#1 1082#0 -888#5 907#0 1074#1 1074#0 739#1 739#0 -748#4 1097 816#2 816#1 998 856#0 298#2 929#7 1119 812#0 812#1 812#2"/>
    </person>
    <vehicle id="pedestrian_SH3_796_0" type="shared" depart="triggered">
        <route edges="451 456 -913 -1422 -1285#2 -1282#2 -1282#1 -1282#0 -1287#1 -1287#0 851#3 851#0 -468#6 -468#5 -468#3 -468#2 -468#1 -468#0 1300#1 1408#0 1408#1 1408#2 1408#3 1408#4 1408#5 1408#6 1408#7 497#1 243 494#0 494#1 494#2 494#3 494#4 351#2 351#3 351#4 -350 -519#2 -519#1 -519#0 -582#10 -582#9 -582#8 -582#7 -582#6 -582#5 -582#4 630#1 630#2 630#3 -617#5 -617#4 -617#3 -617#2 -617#1 -617#0 111 862#0 709 701#2 888#0 888#1 888#2 888#3 888#4"/>
    </vehicle>
    <person id="pedestrian_SH3_796" depart="18620.00">
        <ride from="451" to="888#4" lines="pedestrian_SH3_796_0"/>
    </person>
    <person id="pedestrian_PT2_310" depart="18624.00">
        <walk edges="970 1368#1 -1372#0 1529#1 1529#0 -752#4 -752#5 1092#1 1072 787#3 787#4 787#5" busStop="155378"/> <!-- Hopital -->
        <ride busStop="155409" lines="3:Fontvieille" intended="bus_3:Fontvieille.0" depart="19942.00"/> <!-- Athanee -->
        <walk edges="856#0 298#2 929#7 1119 -812#0 -812#1 893 902#4 817#1 -817#0 895#3 803#0 885#0 1169#1 1169#2 1218#2"/>
    </person>
    <person id="pedestrian_walk_446" depart="18630.00">
        <walk edges="1448#2 -1341#5 -1341#6 -1341#7 -1341#8 -1341#9 -1341#10 -1341#11 -1341#12 -1341#13 -1341#14 -1341#15 -1341#16 -1488 1486#2 1486#1 1486#0 -1332#1 1065 890#1 596#0 596#1 924#1 1255 1365 728#5"/>
    </person>
    <person id="pedestrian_PT1_1576" depart="18640.00">
        <walk edges="709 701#2 888#0 -888#0 863#0 863#1 863#2 617#0" busStop="155371"/> <!-- Pont Sainte-Devote -->
        <ride busStop="155334" lines="5:Larvotto" intended="bus_5:Larvotto.0" depart="19251.00"/> <!-- Monte-Carlo (TAM) | Monte-Carlo (Tourisme) -->
        <walk edges="582#3 -576 1004 1170#0 561#0 447"/>
    </person>
    <person id="pedestrian_PT2_1429" depart="18643.00">
        <walk edges="-468#2 -468#1 -468#0 1300#1 1408#0 1408#1 1408#2 1408#3 1408#4 1408#5 1408#6 1408#7 497#1 243 494#0" busStop="155455"/> <!-- Saint-Roman -->
        <ride busStop="155365" lines="100:Nice" intended="bus_100:Nice.0" depart="20095.00"/> <!-- Place d'Armes (TAM) -->
        <walk edges="-737#2 737#0 15#5 15#4 796 1576" busStop="155380"/> <!-- Fontvieille - Centre Commercial -->
        <ride busStop="155393" lines="4:SaintRoman" intended="bus_4:SaintRoman.2" depart="21097.00"/> <!-- Heliport -->