<?xml version="1.0" encoding="UTF-8"?>

<!-- 
    Monaco SUMO Traffic (MoST) Scenario
    Copyright (C) 2018 
    Lara CODECA

    This program is free software: you can redistribute it and/or modify
    it under the terms of the GNU General Public License as published by
    the Free Software Foundation, either version 3 of the License, or
    (at your option) any later version.

    This program is distributed in the hope that it will be useful,
    but WITHOUT ANY WARRANTY; without even the implied warranty of
    MERCHANTABILITY or FITNESS FOR A PARTICULAR PURPOSE.  See the
    GNU General Public License for more details.

    You should have received a copy of the GNU General Public License
    along with this program.  If not, see <http://www.gnu.org/licenses/>.
-->

<routes xmlns:xsi="http://www.w3.org/2001/XMLSchema-instance" xsi:noNamespaceSchemaLocation="http://sumo.dlr.de/xsd/routes_file.xsd">
    <person id="pedestrian_3_325" depart="18008.00">
        <walk edges="1353#6 1601 -1263#5 -1263#4 -1265#11 -1265#10 -1265#9 1264#1 1052#2 1052#1 1052#0 -1265#5 -1265#4 -1265#2 -1265#1 -1265#0 1603 1354#17 1506 -1502#2 1058#0 1058#1 1058#2 -619#1 619#0 868#2 868#1 868#0 893#0 893#1" busStop="155540"/>
        <ride busStop="155487" lines="4:Fontvieille"/>
        <walk edges="-714#1 743#0 743#1 6#6 6#5 6#4 799 1595 794#4 -803#2 -803#1 -803#0 900#1 -1510 899 807#1"/>
    </person>
    <person id="pedestrian_1_1106" depart="18029.00">
        <walk edges="801 804 805 809 -781 -782 -780 694 736#0 1095#1 1095#0 280#0 737#4 735#0 735#1 735#2 735#3 735#4 735#5 862#0 862#1 862#2"/>
    </person>
    <person id="pedestrian_1_122" depart="18044.00">
        <walk edges="529 440#2 440#3 440#6 440#8 571#4 587#2 1047 577#1 1539 -581#4 581#5 1044 584#5 584#4 584#3 584#2 -584#1 622 621 619#5 619#4 619#3 619#2 619#1 619#0 868#2 738 677 -733#13 -733#12 -733#11 -733#10 -733#9 731#5 731#4"/>
    </person>
    <person id="pedestrian_4_747" depart="18087.00">
        <walk edges="-1287 456" busStop="155580"/>
        <ride busStop="155514" lines="100:Nice"/>
        <walk edges="-740#2 -740#0 6#5 1214#0 1214#1"/>
    </person>
    <person id="pedestrian_3_405" depart="18114.00">
        <walk edges="-1345#3 1077 -626#0 -626#1 -624#3 -619#3 -619#4 -619#5 632#3 632#2 623#2 596 447 563#0 564#0 564#1 564#2 564#3 1048 -584#11 584#12 1565"/>
    </person>
    <person id="pedestrian_1_155" depart="18134.00">
        <walk edges="681 -694 736#0 1095#1 1095#0 280#0 737#4 735#0 735#1 735#2 735#3 735#4 735#5 862#0 862#1 862#2"/>
    </person>
    <person id="pedestrian_3_100" depart="18181.00">
        <walk edges="-1259#1 -1259#2 -1303#0 -1301#0 -1260#0 -1260#1 -1260#2 -1260#3 1016 468#3 1452 1453 -1257#1" busStop="155632"/>
        <ride busStop="155514" lines="100:Nice"/>
        <walk edges="-740#2 -740#0 6#5 6#4 799 1595 794#4 794#5"/>
    </person>
    <person id="pedestrian_1_889" depart="18233.00">
        <walk edges="1158#6 -289#0 -793#2 288#1 1181#1 1181#0 794#5 794#4 1595 799 6#4 6#5 740#0 740#2 883#3 -736#3 -736#2 -736#1 -736#0 -694 681 678 718 722 -785 -871 407 787 1229#1 1148"/>
    </person>
    <person id="pedestrian_1_169" depart="18271.00">
        <walk edges="407 -871 -785 722 718 678 681 -694 736#0 1095#1 1095#0 280#0 737#3 737#2 737#1 737#0 697 883#0 884#11 744#1 744#0 1495#3 -1495#2 -1495#1"/>
    </person>
    <person id="pedestrian_1_679" depart="18287.00">
        <walk edges="732 895#5 -895#4 -895#3 -895#2 -895#1 -895#0 626#1 624#3 -619#3 -619#4 -619#5 632#3 632#2 632#1 632#0 -584#4 -584#5 -584#6 -584#7 -584#8 1049#0 1049#1 581#2 581#1 581#0 250#0 250#3 -522#1 -522#0"/>
    </person>
    <person id="pedestrian_3_374" depart="18291.00">
        <walk edges="1340#1 1340#0 565#0 565#1 565#2 565#3 565#4 565#5 1347#0 1347#1 1347#2 597 623#2 623#1 1079 -584#1 620#0 620#1 -863#5 863#4 863#2"/>
    </person>
    <person id="pedestrian_4_382" depart="18307.00">
        <walk edges="-485 1331#0 -902 -540#1 -540#0 -1366#2 -1366#1 -1366#0 830#0" busStop="155471"/>
        <ride busStop="155496" lines="M3:Hospital"/>
        <walk edges="821#1 821#2 -790#5" busStop="155546"/>
        <ride busStop="155640" lines="3:Otto"/>
        <walk edges="790#4 790#3 790#2 1093 893#3 -893#2" busStop="155541"/>
        <ride busStop="155571" lines="4:SaintRoman"/>
        <walk edges="619#4 629#3 629#2 -630 -394#4"/>
    </person>
    <person id="pedestrian_4_450" depart="18363.00">
        <walk edges="-390#3 -668#2 -668#3 -668#4 -668#5 -668#6 -668#7 -668#8 307#0 310#1 1377#3 1377#2 1377#1 1377#0 -1393#6 1393#7 830#0" busStop="155471"/>
        <ride busStop="155496" lines="M3:Hospital"/>
        <walk edges="821#1 821#2 -790#5" busStop="155546"/>
        <ride busStop="155640" lines="3:Otto"/>
        <walk edges="790#4 790#3 790#2 1093 893#3 -893#2" busStop="155541"/>
        <ride busStop="155477" lines="4:SaintRoman"/>
        <walk edges="-893#1 -709#1"/>
    </person>
    <person id="pedestrian_1_707" depart="18403.00">
        <walk edges="502#1 1321#6 1321#5 1321#4 865#4 865#3 865#2 1033#1 1033#0 -530#1 -530#0 350#3 350#4 -349 -95#0 -520#2 -520#1 -520#0 -584#11 -584#10 -584#9 -584#8 -584#7 -584#6 -584#5 -584#4 -584#3 -584#2 -584#1 620#0 620#1 -863#5 -863#4 -863#2 -863#1 1537 -729#2 862#1 862#0 735#5 735#4 735#3 735#2 735#1 735#0 737#4 280#0 1095#0 1095#1 736#0 694 -780 -782 -781 809 -805 1216#0 1216#1"/>
    </person>
    <person id="pedestrian_2_650" depart="18454.00">
        <walk edges="292#0 -1 312" busStop="155629"/>
        <ride busStop="155556" lines="4:SaintRoman"/>
        <walk edges="740#2 883#2 727 -714#1 -912#0 1086#1 -710#0"/>
    </person>
    <person id="pedestrian_3_953" depart="18478.00">
        <walk edges="303#2 826#0 -1397#1 -1397#0 1447 -297#1 297#0 -216#3 -216#4 -216#5 -216#6 1114 -824#7 -818#0 1444#0 1155 1444#3 1146#1 1552#0 1443#0 1443#1 1443#2 1418#7 -1418#6" busStop="155626"/>
        <ride busStop="155483" lines="100:Menton"/>
        <walk edges="584#3 584#4 584#5 1044 581#5 -581#4 1539 577#1 1047 587#2 571#4 440#8 440#6" busStop="155549"/>
        <ride busStop="155524" lines="5:Larvotto"/>
        <walk edges="439#9 359#3 359#4 359#5 237#0 237#1 353#2"/>
    </person>
    <person id="pedestrian_3_499" depart="18486.00">
        <walk edges="1261#0 1512#2 1333 1328#1 1328#2 -544#1 -544#0 -1325#5 -1325#4 -1325#3 -1325#2 242#0 1039#0 1039#1 -503#0 1456 503#4 1032#2 1032#1 1135#0 1135#1 -1320 240#1 -564#6 564#5 564#4 1048 1540"/>
    </person>
    <person id="pedestrian_1_728" depart="18522.00">
        <walk edges="710#1 1086#1 -912#0 -714#1 727 883#2 883#3 883#4 697 737#0 737#1 737#2 737#3 737#4 281 -707#0"/>
    </person>
    <person id="pedestrian_3_879" depart="18598.00">
        <walk edges="835#1 835#0 1422#3 1145#0 1145#1 -1418#21" busStop="155618"/>
        <ride busStop="155622" lines="M4:HotelVille"/>
        <ride busStop="155556" lines="100:Menton"/>
        <walk edges="740#2 883#3 -736#3 -736#2" busStop="155525"/>
        <ride busStop="155557" lines="2:Monaco"/>
        <walk edges="-678 1213 -782 -781 809"/>
    </person>
    <person id="pedestrian_3_805" depart="18657.00">
        <walk edges="1283#2 1283#3 -1288#1 1293 -1291 1292 1301#0 -1260#0 -1260#1 -1260#2 -1260#3 1016 468#3 1452 1453 -1257#1" busStop="155632"/>
        <ride busStop="155514" lines="100:Nice"/>
        <walk edges="-740#2 883#2 883#1 884#11 744#1 744#0 1495#3 1094#1"/>
    </person>
    <person id="pedestrian_3_465" depart="18667.00">
        <walk edges="-1313#3 -1313#2 -1313#1 -1313#0 468#1 1020#0 1020#1 -1257#0 1304#3 -470" busStop="155475"/>
        <ride busStop="155505" lines="M0:Italy"/>
        <walk edges="703#1 738 868#1 1536 274#1 274#0 862#2 862#1 -705#0 -857"/>
    </person>
    <person id="pedestrian_1_84" depart="18729.00">
        <walk edges="1537 729#2 862#2 862#3 739 884#1 884#2 884#3 884#4 884#5 884#6 884#7 884#8 884#11 883#1 883#2 -740#2 -740#0 6#5 6#4 1237 1491#1 443#0 -1"/>
    </person>
    <person id="pedestrian_1_263" depart="18731.00">
        <walk edges="-751#0 912#1 912#0 893#5"/>
    </person>
    <person id="pedestrian_3_393" depart="18760.00">
        <walk edges="388 -388 1269#0 -1386#1 1547#1 1547#0 755#5 1104#0 1104#1 -733#4 1084 790#3 790#2 1093 893#4 1094#0 -696 1495#2"/>
    </person>
    <person id="pedestrian_2_750" depart="18780.00">
        <walk edges="893#0 868#0 1536 -274#1 -274#0 862#3"/>
    </person>
    <person id="pedestrian_2_569" depart="18793.00">
        <walk edges="710#1 1086#1 912#0 893#5 893#4 893#3 893#2 893#1 893#0 868#0 868#1 868#2 619#0" busStop="155520"/>
        <ride busStop="155498" lines="4:SaintRoman"/>
        <walk edges="584#1 -574#1 -574#2 -595#5 -595#4" busStop="155567"/>
        <ride busStop="155524" lines="5:Larvotto"/>
        <walk edges="439#9 359#3 359#4 359#5 237#0"/>
    </person>
    <person id="pedestrian_3_1059" depart="18808.00">
        <walk edges="-1520#1 -390#1 -390#2 -390#3 -668#2 -668#3 -668#4 -668#5 -668#6 -668#7 -668#8 307#0 310#1 1377#3 1377#2 1377#1 1377#0 -1393#6 1393#7 830#0" busStop="155471"/>
        <ride busStop="155496" lines="M3:Hospital"/>
        <walk edges="821#1 821#2 -790#5" busStop="155546"/>
        <ride busStop="155640" lines="3:Otto"/>
        <walk edges="790#4 790#3 790#2 1093 893#3 -893#2" busStop="155541"/>
        <ride busStop="155498" lines="4:SaintRoman"/>
        <walk edges="584#1 -574#1 -574#2 -595#5 -595#4 594#0 594#1 594#2 -375#0 1042"/>
    </person>
    <person id="pedestrian_3_1081" depart="18813.00">
        <walk edges="335#1 335#0 988#0 -1322#6 -1322#7 1324#1 1326#1 1039#1 -503#0 1456 503#4 1032#2 1032#1 1135#0 1135#1 -1320 240#1 -564#6 564#5 564#4 564#3"/>
    </person>
    <person id="pedestrian_3_1028" depart="18830.00">
        <walk edges="-1307#0 1020#1 -1257#0 1304#3 -470" busStop="155475"/>
        <ride busStop="155505" lines="M0:Italy"/>
        <walk edges="703#1 738 868#1 1536 -274#1 -274#0 862#3 739" busStop="155501"/>
        <ride busStop="155563" lines="1:Monaco"/>
        <walk edges="739 1204 278#0 750#1"/>
    </person>
    <person id="pedestrian_1_444" depart="18878.00">
        <walk edges="440#3 440#6 440#8 571#4 587#2 587#1 1045#0 1045#1 1049#1 1049#0 584#9 584#10 1048 564#4 564#5 564#6 240#2 241#0"/>
    </person>
    <person id="pedestrian_1_816" depart="18909.00">
        <walk edges="866 1164#0 1164#2 1153#1 1153#2 1153#3 1153#4 787 407 -871 -785 722 718 678 681 -694 736#0 1095#1 1095#0 280#0 737#4 735#0 735#1 735#2 735#3 735#4 735#5 862#0 862#1 -729#2 1537 -863#1 -863#2 -863#4 -863#5 620#1 620#0 -584#1 -584#2 -584#3 -584#4 -584#5 -584#6 -584#7 -584#8 -584#9 -584#10 -584#11 569#0 569#1 1038#0 1178"/>
    </person>
    <person id="pedestrian_1_28" depart="18944.00">
        <walk edges="1610 1467 1355#0 1355#1 1463#3 1463#4 563#2 563#1 1182#0 1182#1 1538 -568 -576 1573 -584#7 1043 -592#1 581#4 1539 577#1 1047 587#2 571#4 440#8 439#2 439#4 439#6 439#7 439#9 359#3 359#4 359#5 237#0 237#1 237#2 356"/>
    </person>
    <person id="pedestrian_4_286" depart="18945.00">
        <walk edges="1436 1277 -1282#0 916#1 456" busStop="155580"/>
        <ride busStop="155514" lines="100:Nice"/>
        <walk edges="-740#2 883#3 -736#3 -736#2" busStop="155525"/>
        <ride busStop="155557" lines="2:Monaco"/>
        <walk edges="-678 1213 -782 -781 809 -805 1216#0"/>
    </person>
    <person id="pedestrian_1_121" depart="18954.00">
        <walk edges="250#1 -581#0 -581#1 581#2 1049#1 1049#0 -584#8 -584#7 -584#6 -584#5 -584#4 -584#3 -584#2 -584#1 622 621 619#5 619#4 619#3 619#2 619#1 619#0 868#2 868#1 868#0 -893#0 -893#1 1495#0 1495#1 696"/>
    </person>
    <person id="pedestrian_4_394" depart="19024.00">
        <walk edges="668#1 668#0 -668#3 -668#4 -668#5 -668#6 -668#7 -668#8 307#0 310#1 1377#3 1377#2 1377#1 1377#0 -1393#6 1393#7 830#0" busStop="155471"/>
        <ride busStop="155496" lines="M3:Hospital"/>
        <walk edges="821#1 821#2 -790#5" busStop="155546"/>
        <ride busStop="155640" lines="3:Otto"/>
        <walk edges="790#4 790#3 790#2 1093 893#3 -893#2" busStop="155541"/>
        <ride busStop="155498" lines="4:SaintRoman"/>
        <walk edges="584#1 1079 623#1 623#2 597 1347#2 1347#1 1069 1466 1467 1439 1464 1354#6 1465#1 -922#2"/>
    </person>
    <person id="pedestrian_4_748" depart="19121.00">
        <walk edges="1398#7 935#6 299 1593 216#0" busStop="155460"/>
        <ride busStop="155496" lines="M3:Hospital"/>
        <walk edges="821#1 821#2 -790#5" busStop="155546"/>
        <ride busStop="155640" lines="3:Otto"/>
        <walk edges="790#4 790#3 790#2 1093 893#3 -893#2" busStop="155541"/>
        <ride busStop="155502" lines="4:SaintRoman"/>
        <walk edges="-584#8 -584#9 -584#10 1048 -564#4 1557 1339#2 1339#3 1337#3"/>
    </person>
    <person id="pedestrian_1_1062" depart="19132.00">
        <walk edges="-525#0 -520#2 -520#1 -520#0 -584#11 1048 564#3 564#2 564#1 564#0 563#0 447 596 623#2 623#1 623#0 621 619#5 619#4"/>
    </person>
    <person id="pedestrian_3_522" depart="19146.00">
        <walk edges="711 703#1 738 868#2 619#0 685#0 685#1 685#2 685#3 -863#4"/>
    </person>
    <person id="pedestrian_4_659" depart="19167.00">
        <walk edges="451 456" busStop="155580"/>
        <ride busStop="155627" lines="100:Nice"/>
        <walk edges="1418#2 1525#0 1525#1 1525#2 -834#8 907#0 898"/>
    </person>
    <person id="pedestrian_1_535" depart="19172.00">
        <walk edges="922#8 1459#2 -1354#0 565#0 565#1 565#2 565#3 565#4 565#5 1347#0 1347#1 1347#2 864 602 632#3 -619#5"/>
    </person>
    <person id="pedestrian_4_188" depart="19221.00">
        <walk edges="-1286 456 -918" busStop="155509"/>
        <ride busStop="155514" lines="100:Nice"/>
        <walk edges="-740#2 883#3 -736#3 -736#2" busStop="155525"/>
        <ride busStop="155557" lines="2:Monaco"/>
        <walk edges="-678 718"/>
    </person>
    <person id="pedestrian_4_531" depart="19275.00">
        <walk edges="-1277 -1282#0 916#1 456 -918" busStop="155509"/>
        <ride busStop="155569" lines="100:Nice"/>
        <ride busStop="155575" lines="1:Monaco"/>
        <walk edges="-570 -591 1573 -584#6 1044 -581#5"/>
    </person>
    <person id="pedestrian_4_32" depart="19282.00">
        <walk edges="451 456" busStop="155580"/>
        <ride busStop="155530" lines="100:Nice"/>
        <walk edges="620#1 606#2 606#1 606#0 590#0 -566#0 -595#5 -595#4 -595#3"/>
    </person>
    <person id="pedestrian_2_150" depart="19307.00">
        <walk edges="817 733#2 733#3 733#4 1084 790#3 790#2 -790#1 -790#0" busStop="155547"/>
        <ride busStop="155564" lines="3:Otto"/>
        <walk edges="869#2 733#13"/>
    </person>
    <person id="pedestrian_1_911" depart="19352.00">
        <walk edges="-522#1 -522#0 1542 -494#3 1031 865#4 1321#4 1321#5 1321#6"/>
    </person>
    <person id="pedestrian_1_685" depart="19370.00">
        <walk edges="1158#0 290#2 -290#1 -290#0 357#3 -347 794#1 794#2 794#3 1595 799 6#4 6#5 6#6 743#1 743#0 -714#1 893#5 893#4 893#3 893#2 893#1 -746#1"/>
    </person>
    <person id="pedestrian_2_320" depart="19426.00">
        <walk edges="1355#0 1467 1466 1069 1347#1 1347#2 597 623#2 623#1 1079 584#1 -574#1 -574#2 -595#5 -595#4 594#0 594#1 594#2 -375#0"/>
    </person>
    <person id="pedestrian_3_272" depart="19439.00">
        <walk edges="-1261#7 635#0 1167#1 -1391#10 -1391#9 -1391#8 -1391#7 -1391#6 -1391#5 1478#7 1478#6 1478#5 1478#4 1478#3 1478#2 1478#1 1561#0 1576 -1389 1385 731#1 1090 -733#6 1099 -790#1 1093 893#4 893#5 -714#1 727 883#2 883#3 -736#3 -736#2" busStop="155525"/>
        <ride busStop="155557" lines="2:Monaco"/>
        <walk edges="-678 -692 -778"/>
    </person>
    <person id="pedestrian_1_1124" depart="19454.00">
        <walk edges="502#2 494#2 494#3 494#4 350#1 95#1 520#4 520#2 520#1 584#12 584#11 584#10 -584#9 -584#8 -584#7 -584#6 -584#5 -584#4 -584#3 -584#2 -584#1 620#0 620#1 -863#5 -863#4 -863#2 -863#1 1537 729#2"/>
    </person>
    <person id="pedestrian_4_58" depart="19501.00">
        <walk edges="1398#5 1398#6 1398#7 935#6 299 1593 216#0" busStop="155460"/>
        <ride busStop="155470" lines="M3:Hospital"/>
        <walk edges="216#8 -933#3 -933#2 -933#1 1143#0 -824#0 294#1 294#2 861#0" busStop="155558"/>
        <ride busStop="155556" lines="3:Fontvieille"/>
        <walk edges="740#2 883#3 -736#3 -736#2" busStop="155525"/>
        <ride busStop="155557" lines="2:Monaco"/>
        <walk edges="-678 -718 -722 785 871 407"/>
    </person>
    <person id="pedestrian_1_536" depart="19531.00">
        <walk edges="586#0 586#1 250#1 250#0 1565 -520#1 1030 521#5 1019 -521#8 -521#9"/>
    </person>
    <person id="pedestrian_4_430" depart="19542.00">
        <walk edges="-916#0 916#1 456" busStop="155580"/>
        <ride busStop="155604" lines="100:Nice"/>
        <ride busStop="155574" lines="4:Fontvieille"/>
        <walk edges="494#4 1541 -526#1 530#1 1033#0 1035 865#0 -860#0"/>
    </person>
    <person id="pedestrian_2_767" depart="19546.00">
        <walk edges="-1269#1 417 -755#0 755#1 755#2 755#3 755#4 755#5 1104#0 1104#1 -733#4 1084 790#3 790#2 1093 893#3 893#2 -893#1" busStop="155477"/>
        <ride busStop="155498" lines="4:SaintRoman"/>
        <walk edges="584#1 -574#1 -574#2 -595#5 -595#4" busStop="155567"/>
        <ride busStop="155524" lines="5:Larvotto"/>
        <walk edges="439#9 359#2 440#0"/>
    </person>
    <person id="pedestrian_2_143" depart="19572.00">
        <walk edges="799 6#4 6#5 740#0 740#2 883#3 -736#3 -736#2" busStop="155525"/>
        <ride busStop="155557" lines="2:Monaco"/>
        <walk edges="-678 1213 -782 -781 809 -805 1216#0 1216#1 1221#1 1112"/>
    </person>
    <person id="pedestrian_3_952" depart="19572.00">
        <walk edges="920#0 920#1 -1299#1" busStop="155506"/>
        <ride busStop="155505" lines="M0:Italy"/>
        <walk edges="703#1 738 868#2 619#0" busStop="155520"/>
        <ride busStop="155503" lines="2:Monaco"/>
        <walk edges="620#1 606#2 606#1 -606#0"/>
    </person>
    <person id="pedestrian_2_523" depart="19607.00">
        <walk edges="-507#1 -860#4 -521#10 523 1178 1038#0 569#1 569#0 -584#11 -584#10 -570" busStop="155575"/>
        <ride busStop="155540" lines="4:Fontvieille"/>
        <walk edges="893#1 746#1 1085#1 1085#0 720 733#9 731#5"/>
    </person>
    <person id="pedestrian_2_19" depart="19610.00">
        <walk edges="751#5 751#6 -790#4 -790#3 -790#2 -790#1 -790#0" busStop="155547"/>
        <ride busStop="155498" lines="5:Larvotto"/>
        <walk edges="584#1 584#2 584#3 584#4 584#5 584#6 584#7 584#8 584#9 584#10 584#11 584#12" busStop="155570"/>
        <ride busStop="155566" lines="4:SaintRoman"/>
        <walk edges="-494#3 1031"/>
    </person>
    <person id="pedestrian_2_325" depart="19625.00">
        <walk edges="71#0 -274#0 862#3 739" busStop="155563"/>
        <ride busStop="155557" lines="2:Monaco"/>
        <walk edges="-678 1213 -782 -781 1231#0"/>
    </person>
    <person id="pedestrian_1_835" depart="19629.00">
        <walk edges="1547#0 755#5 1104#0 1104#1 -733#4 1084 790#3 790#2 1093 893#4 893#5 -714#1 743#0 743#1 6#6 6#5 6#4 1237 1491#0 -820#1 -1509#2"/>
    </person>
    <person id="pedestrian_1_380" depart="19647.00">
        <walk edges="1321#4 865#4 865#3 865#2 1033#1 1033#0 -530#1 -530#0 350#3 350#4 -349 -95#0 -520#2 -520#1 -520#0 -584#11 -584#10 -584#9 -584#8 -584#7 -584#6 -584#5 -584#4 -584#3 -584#2 -584#1 620#0 620#1 -863#5 -863#4 -863#2 -863#1 1537 729#2 862#2 862#3 739 884#1 884#2 884#3 884#4 884#5 884#6 884#7 884#8 884#11 883#1 883#2 -740#2 -740#0 6#5 6#4 1237 1491#1 443#0 312"/>
    </person>
    <person id="pedestrian_1_67" depart="19660.00">
        <walk edges="914 -733#0 -733#1 -733#2 -733#3 -733#4 -733#5 -733#6 -733#7 -733#8 -733#9 -733#10 -733#11 -733#12 -733#13 677 738 868#2 619#0 -619#1 -619#2 -619#3 -619#4 -619#5 632#3 632#2 623#2 596 447 563#0 564#0 564#1 564#2 564#3 1048 -584#11 584#12"/>
    </person>
    <person id="pedestrian_1_174" depart="19676.00">
        <walk edges="703#2 711 867#0 102 -619#0 -619#1 1058#2 1058#1 1058#0 1502#2 1502#3 925 924 627#0 -611#0 -611#1"/>
    </person>
    <person id="pedestrian_1_436" depart="19692.00">
        <walk edges="440#3 440#6 440#8 571#4 587#2 1047 577#1 1539 -581#4 581#5 1044 584#5 584#4 584#3 584#2 -584#1 622 621 619#5 619#4 619#3 619#2 619#1 619#0 868#2 738 677 733#13 869#2 869#1 869#0 1499#0 1499#3 790#0"/>
    </person>
    <person id="pedestrian_1_38" depart="19693.00">
        <walk edges="1228#0 1224#1 1224#0 1158#0 290#2 -290#1 -290#0 357#3 -347 794#1 794#2 794#3 1595 799 6#4 6#5 6#6 743#1 743#0 -714#1 -893#5 -893#4 -893#3 -893#2 -893#1"/>
    </person>
    <person id="pedestrian_1_774" depart="19697.00">
        <walk edges="933#0 790#6 1109 -751#4 742#0 742#1 1086#0 1086#1 912#0 -893#5 1094#0 1094#1 1495#3 1005 884#5 884#4 884#3 884#2 884#1 739 862#3 274#0"/>
    </person>
    <person id="pedestrian_2_332" depart="19705.00">
        <walk edges="270 634 863#4 863#2 863#1 1537 729#2 862#2 862#3 739" busStop="155501"/>
        <ride busStop="155627" lines="100:Nice"/>
        <walk edges="1418#2 -1418#1 -1418#0"/>
    </person>
    <person id="pedestrian_1_554" depart="19709.00">
        <walk edges="-893#0 868#0 868#1 868#2 619#0 -619#1 -619#2 -619#3 -619#4 -619#5 632#3 632#2 632#1 -578"/>
    </person>
    <person id="pedestrian_1_340" depart="19712.00">
        <walk edges="824#0 294#1 -936#7 1131 -816#0 -1418#0 443#0 1491#1 1237 6#4 6#5 740#0 740#2 883#3 -736#3 -736#2 -736#1 -736#0 -694 681 -678"/>
    </person>
    <person id="pedestrian_3_308" depart="19713.00">
        <walk edges="-754#1 -754#0 -1269#6 -1269#5 -1269#4 -1269#3 -1269#2 417 1386#5 1238 1242#1 1239 -733#0 913 823#1 823#0 291#2 1143#1 1143#0 -824#0 294#1 294#2"/>
    </person>
    <person id="pedestrian_1_680" depart="19722.00">
        <walk edges="571#2 571#1 588 -595#0 1185#2 -594#1 -594#0 -595#4 -595#5 -574#2 574#1 622 621 619#5 619#4 619#3 619#2 619#1 619#0 868#2 738 677 -733#13 -733#12 -733#11 -733#10 -733#9 -733#8 1091#2 731#2 1009"/>
    </person>
    <person id="pedestrian_1_950" depart="19760.00">
        <walk edges="-288#2 357#1 890#1 890#0 806#0 900#3 900#2 1510 -820#0 -820#1"/>
    </person>
    <person id="pedestrian_2_535" depart="19779.00">
        <walk edges="740#2" busStop="155556"/>
        <ride busStop="155562" lines="3:Fontvieille"/>
        <walk edges="707#0 279 735#1 735#2 735#3" busStop="155533"/>
        <ride busStop="155534" lines="6:Larvotto"/>
        <ride busStop="155535" lines="1:SaintRoman"/>
        <walk edges="-729#1 -863#0" busStop="155537"/>
        <ride busStop="155532" lines="6:Larvotto"/>
        <walk edges="693#0 693#1 -590#2 -590#1 -590#0 -566#0"/>
    </person>
    <person id="pedestrian_4_469" depart="19783.00">
        <walk edges="958 -958 1335#1 1335#0 307#2 307#1 307#0 310#1 1377#3 1377#2 1377#1 1377#0 -1393#6 1393#7 830#0 830#1 830#2 830#3 830#4 830#5 830#6" busStop="155479"/>
        <ride busStop="155470" lines="M3:Hospital"/>
        <walk edges="216#8 -933#3 -933#2 -933#1 1143#0 -824#0 294#1 294#2 861#0" busStop="155558"/>
        <ride busStop="155562" lines="3:Fontvieille"/>
        <walk edges="707#0 279 735#1 735#2 735#3" busStop="155533"/>
        <ride busStop="155534" lines="6:Larvotto"/>
        <ride busStop="155535" lines="1:SaintRoman"/>
        <walk edges="-729#1 -723"/>
    </person>
    <person id="pedestrian_3_758" depart="19784.00">
        <walk edges="1265#5 1265#6 1068 922#2 922#3 1463#1 1463#2 1463#3 1463#4 563#2 563#1 1182#0 1182#1 1538 -568 -576 1573 -584#7 -584#8" busStop="155502"/>
        <ride busStop="155526" lines="4:SaintRoman"/>
        <walk edges="-235 502#2"/>
    </person>
    <person id="pedestrian_4_384" depart="19785.00">
        <walk edges="1277 -1282#0 916#1 456" busStop="155580"/>
        <ride busStop="155514" lines="100:Nice"/>
        <walk edges="-740#2 -740#0 6#5 6#4 799 1595" busStop="155529"/>
        <ride busStop="155542" lines="4:SaintRoman"/>
        <walk edges="562 -289#0 -289#1 -289#4 -289#3 -287"/>
    </person>
    <person id="pedestrian_2_159" depart="19788.00">
        <walk edges="-274#1 1536 868#1 738 677 -733#13 -733#12 -733#11 -733#10 -733#9"/>
    </person>
    <person id="pedestrian_2_257" depart="19806.00">
        <walk edges="733#8 733#9 -733#10 -733#11 -733#12 -733#13 677 738 868#2 619#0" busStop="155520"/>
        <ride busStop="155528" lines="5:Larvotto"/>
        <walk edges="-595#0 588"/>
    </person>
    <person id="pedestrian_3_179" depart="19875.00">
        <walk edges="-216#4 -216#5 -216#6 216#7 216#8" busStop="155470"/>
        <ride busStop="155496" lines="M3:Hospital"/>
        <walk edges="821#1 821#2 -790#5" busStop="155546"/>
        <ride busStop="155640" lines="3:Otto"/>
        <walk edges="790#4 790#3 790#2 1093 893#4 1094#0"/>
    </person>
    <person id="pedestrian_3_89" depart="19887.00">
        <walk edges="790#6" busStop="155527"/>
        <ride busStop="155556" lines="3:Fontvieille"/>
        <walk edges="740#2 883#3 -736#3 -736#2" busStop="155525"/>
        <ride busStop="155557" lines="2:Monaco"/>
        <walk edges="-678 -718 -722 785 871 -407 -787 1229#1 1229#2 859"/>
    </person>
    <person id="pedestrian_4_476" depart="19911.00">
        <walk edges="1278 1277 -1282#0 916#1 456" busStop="155580"/>
        <ride busStop="155501" lines="100:Nice"/>
        <walk edges="739 862#4 862#0"/>
    </person>
    <person id="pedestrian_4_535" depart="19921.00">
        <walk edges="-1277 -1282#0 916#1 456 -918" busStop="155509"/>
        <ride busStop="155514" lines="100:Nice"/>
        <walk edges="-740#2 883#3 883#4 697 737#0 737#1 737#2 737#3 280#0 1095#0 1095#1"/>
    </person>
    <person id="pedestrian_1_1100" depart="19925.00">
        <walk edges="907#3 907#4 898 -816#1 -816#0 1131 936#7 294#2 861#0 861#1 861#2 313#1"/>
    </person>
    <person id="pedestrian_1_1084" depart="19934.00">
        <walk edges="-740#2 883#2 727 -714#1 893#5 893#4 1093 -790#1 1099 -733#6 1090 1009 -749#1"/>
    </person>
    <person id="pedestrian_1_299" depart="19946.00">
        <walk edges="575#0 575#1 439#0 571#2 567 -579 -705#2 -705#1 -705#0 862#1 862#2 862#3 739 884#1 884#2 884#3 884#4 884#5 1005 1495#3 1094#1 1094#0 -893#5 912#0 912#1 751#0"/>
    </person>
    <person id="pedestrian_1_645" depart="19957.00">
        <walk edges="733#13 677 738 868#2 619#0 619#1 619#2 619#3 619#4 619#5 621 622 1186#0"/>
    </person>
    <person id="pedestrian_4_131" depart="19963.00">
        <walk edges="888 1592#1 1590#1 1593 216#0" busStop="155460"/>
        <ride busStop="155496" lines="M3:Hospital"/>
        <walk edges="821#1 821#2 -790#5" busStop="155546"/>
        <ride busStop="155640" lines="3:Otto"/>
        <walk edges="790#4 1084 733#4 733#3"/>
    </person>
    <person id="pedestrian_3_972" depart="19980.00">
        <walk edges="1418#17 -1418#16 -1418#13" busStop="155622"/>
        <ride busStop="155556" lines="100:Menton"/>
        <walk edges="740#2 883#3 -736#3 -736#2" busStop="155525"/>
        <ride busStop="155557" lines="2:Monaco"/>
        <walk edges="-678 -692 -778 -796"/>
    </person>
    <person id="pedestrian_2_527" depart="19990.00">
        <walk edges="-733#12 869#2 869#1 1085#1 1085#2 -893#3 -893#4 1094#0 1094#1 1495#3 744#0 744#1 884#11 883#0"/>
    </person>
    <person id="pedestrian_4_247" depart="20000.00">
        <walk edges="1288#2 1288#1 1293 -1291 1292 1301#0 -1260#0 -1260#1 -1260#2 -1260#3 1016 -468#4 1017 1257#2 1132 -1304#2 -470" busStop="155475"/>
        <ride busStop="155505" lines="M0:Italy"/>
        <walk edges="703#1 738 868#1 1536 274#1 274#0 862#2 862#1 -705#0 -857 -1494#0 1494#1"/>
    </person>
    <person id="pedestrian_3_376" depart="20001.00">
        <walk edges="-533#0 -1311#0 1311#1 1312#1 1312#2 1022 1322#2 -1322#3 -1322#4 -1322#5 -1322#6 -1322#7 1324#1 1326#1 1039#1 -503#0 1456 503#4 1032#2 -1315#14 855#0 855#4 1340#1 1340#0 565#0 565#1 565#2 565#3 565#4 565#5 1347#0 1347#1 1347#2 597 623#2 632#2" busStop="155531"/>
        <ride busStop="155644" lines="5:Hopital"/>
        <walk edges="-869#2 -726 -733#11 -733#10 -733#9 -733#8" busStop="155539"/>
        <ride busStop="155462" lines="3:Otto"/>
        <walk edges="-733#6 1090 1009 -749#1"/>
    </person>
    <person id="pedestrian_3_214" depart="20017.00">
        <walk edges="819 -1395#1 1115 936#6 -936#7 294#1 -824#0 1143#0 1143#1 291#2 823#0 823#1 913 733#0 733#1 733#2"/>
    </person>
    <person id="pedestrian_4_316" depart="20046.00">
        <walk edges="916#1 456 -918" busStop="155509"/>
        <ride busStop="155569" lines="100:Nice"/>
        <ride busStop="155575" lines="1:Monaco"/>
        <walk edges="-570 1046 564#1 -564#0 563#1 563#2 1463#4 1463#3 1463#2 -1354#4"/>
    </person>
    <person id="pedestrian_3_84" depart="20053.00">
        <walk edges="1313#4 480 1309#2 1309#1 1309#0 -1315#0 -1315#1 -1315#2 1477#1 1477#0 1457#3 1457#2 1457#1 1457#0 1031 494#2 494#1 494#0" busStop="155604"/>
        <ride busStop="155501" lines="100:Nice"/>
        <walk edges="739 862#3 -274#0 71#0 317#1"/>
    </person>
    <person id="pedestrian_3_156" depart="20058.00">
        <walk edges="755#0 755#1 755#2 755#3 755#4 755#5 1104#0 1104#1 -733#4 1084 790#3 790#2 -790#1 -790#0" busStop="155547"/>
        <ride busStop="155498" lines="5:Larvotto"/>
        <walk edges="584#1 584#2 584#3 584#4 584#5 584#6 584#7 584#8 584#9 584#10 584#11 569#0 569#1"/>
    </person>
    <person id="pedestrian_3_162" depart="20071.00">
        <walk edges="625#0 1058#1 1058#2 -619#1 -619#0 102" busStop="155488"/>
        <ride busStop="155640" lines="5:Hopital"/>
        <walk edges="790#4 1084 -733#4 1104#1 -755#7"/>
    </person>
    <person id="pedestrian_2_201" depart="20104.00">
        <walk edges="1536 868#1 868#2 619#0 685#0 685#1 685#2 685#3 634 270"/>
    </person>
    <person id="pedestrian_4_217" depart="20113.00">
        <walk edges="1278 1277 -1282#0 916#1 456" busStop="155580"/>