<?xml version="1.0" encoding="UTF-8"?>

<!-- generated on Thu May 24 10:07:25 2018 by Eclipse SUMO duarouter Version 629ca040dd
<configuration xmlns:xsi="http://www.w3.org/2001/XMLSchema-instance" xsi:noNamespaceSchemaLocation="http://sumo.dlr.de/xsd/duarouterConfiguration.xsd">

    <input>
        <net-file value="../scenario/in/most.net.xml"/>
        <additional-files value="../scenario/in/add/most.busstops.add.xml,../scenario/in/add/most.trainstops.add.xml,../scenario/in/add/most.parkings.add.xml,../scenario/in/add/basic.vType.xml"/>
        <route-files value="out/most.2wheeler.trips.xml"/>
    </input>

    <output>
        <output-file value="../scenario/in/route/most.2wheeler.rou.xml"/>
        <vtype-output value="/dev/null"/>
        <alternatives-output value="../scenario/in/route/most.2wheeler.rou.alt.xml"/>
    </output>

    <processing>
        <ignore-errors value="true"/>
        <max-alternatives value="5"/>
        <remove-loops value="false"/>
        <repair value="false"/>
        <repair.from value="false"/>
        <repair.to value="false"/>
        <routing-threads value="4"/>
        <routing-algorithm value="dijkstra"/>
    </processing>

    <time>
        <begin value="0"/>
        <end value="84600"/>
    </time>

</configuration>
-->

<routes xmlns:xsi="http://www.w3.org/2001/XMLSchema-instance" xsi:noNamespaceSchemaLocation="http://sumo.dlr.de/xsd/routes_file.xsd">
    <vehicle id="2wheeler_1_1032" type="moped" depart="18008.00" departLane="best">
        <route edges="748#1 748#2 748#3 739#0 739#1 739#2 739#3 708#0 708#1 -748#0 -907#1 -907#0 -711#1 740#0 740#1 15#7 -17 211#4 202 205#3 -197 879#5 879#6 879#7 879#8 -741#1 -741#0 -1480#3"/>
    </vehicle>
    <vehicle id="2wheeler_2_130" type="moped" depart="18009.00" departLane="best">
        <route edges="-930#1 -930#0 829#0 829#1 829#2 829#3 829#4 829#5 829#6 829#7 829#8 902#1 902#3 -817#1 -804#2 -804#1 -804#0 815#0 815#1 815#2 -191 773 15#3 15#4 15#5 15#6 15#7 -17 211#4 202 205#3 -197 879#5 879#6 879#7 879#8 -1194#2"/>
    </vehicle>
    <vehicle id="2wheeler_3_50" type="motorcycle" depart="18012.00" departLane="best">
        <route edges="1380#0 1380#1 1380#2 1379#1 1379#2 1379#3 1379#4 1384#0 1384#1 1384#2 1384#3 1384#4 1384#5 1384#6 928#6 303 1573#1 883 290 1578 223#0 223#1 223#2 223#3 223#4 223#5 223#6 223#7 223#8 -927#3 -927#2 -927#1 -927#0 -816#1 -816#0 298#0 298#2"/>
    </vehicle>
    <vehicle id="2wheeler_1_846" type="motorcycle" depart="18018.00" departLane="best">
        <route edges="-17 211#4 202 205#3 -197 879#5 879#6 879#7 879#8 -741#1 -741#0 -1480#3 -1480#2 -1480#1 -1480#0 -888#1 -888#0 863#0 863#1 863#2 116 111 862#0 862#1 -730#11"/>
    </vehicle>
    <vehicle id="2wheeler_GW2_593" type="motorcycle" depart="18031.00" departLane="best">
        <route edges="-1388 144 1387#0 1387#1 1386#1 926#0 926#1 117 1259 1578 223#0 223#1 223#2 223#3 223#4 223#5 223#6 223#7 223#8 223#9 223#10 295#1 295#2 295#3 -808#1 -808#0 192 -809#1 -809#0 752#0 752#1 752#2 752#3 752#4 -746#2 -746#1 -746#0 -1369#1 -1369#0 -1373#1 -1373#0 924#1 925 -890#5 -890#4"/>
    </vehicle>
    <vehicle id="2wheeler_3_1996" type="motorcycle" depart="18046.00" departLane="best">
        <route edges="456 -913 -1422 -1285#2 -1282#2 -1282#1 -1282#0 -1287#1 -1287#0 851#3 851#0 851#1 -1244#4 -1244#3 -1244#2 -1244#1 -1244#0 -1293#4 -1293#3 -1293#2 -467#1 -467#0 93 1487 -368#0 889#1 489#2 489#3 489#4 23 1303#1 1303#2 98 355#0 355#1 355#2 360#1 440#0 440#1 440#2"/>
    </vehicle>
    <vehicle id="2wheeler_1_253" type="moped" depart="18061.00" departLane="best">
        <route edges="369#0 369#1 617#0 683#0 683#1 683#2 -455 -858#2 -858#1 -858#0 110 720 726#1 726#2 857#2 857#3 736 879#1 721#0 747#2"/>
    </vehicle>
    <vehicle id="2wheeler_GW1_97" type="motorcycle" depart="18071.00" departLane="best">
        <route edges="430#0 434 172 437 79 219 78 221#0 221#1 180 771 85 441 290 1578 223#0 223#1 223#2 223#3 223#4 223#5 223#6 223#7 223#8 -927#3 -927#2 -927#1 -927#0 -816#1 -816#0 856#0 856#1 856#2 316#1 201 211#3 211#4 202 205#3 -197 879#5 879#6 879#7 879#8 -1194#2 -1194#1 -13#1 -13#0 -684 -12 1194#0 1194#1 1194#2"/>
    </vehicle>
    <vehicle id="2wheeler_3_1540" type="motorcycle" depart="18108.00" departLane="best">
        <route edges="-1264 -1269#0 911#1 456 -913 -1422 -1285#2 -1282#2 -1282#1 -1282#0 -1287#1 -1287#0 851#3 851#0 -468#6 -468#5 -468#3 -468#2 -468#1 -468#0 1300#1 1408#0 1408#1 1408#2 1408#3 1408#4 1408#5 1408#6 1408#7 497#1 243 494#0 494#1 494#2 494#3 494#4 351#2 351#3 351#4 -350 -105 -519#3 -519#2 -519#1 -519#0 -582#10 -582#9 -582#8 -582#7 -582#6 -582#5 -582#4 630#1 630#2 630#3 -617#5 394#0 394#1 394#2 394#3 -628"/>
    </vehicle>
    <vehicle id="2wheeler_GW2_498" type="motorcycle" depart="18130.00" departLane="best">
        <route edges="-1388 144 1387#0 1387#1 1386#1 926#0 926#1 117 1259 1578 223#0 223#1 223#2 223#3 223#4 223#5 223#6 223#7 223#8 223#9 223#10 295#1 295#2 818#0 818#1 908 730#0 730#1 730#2 730#3 730#4 730#5 730#6 730#7 730#8 730#9 730#10 730#11 675 112 701#0 735 863#2 116 617#0 683#0 683#1 683#2 683#3 632 580 -691#2 -588#2 -588#1 -564#0 -593#5 -593#4 -593#3 -593#2 -593#1 -593#0 586 569#1 569#2 439#0 439#2 439#4 439#5 439#6 523 528 440#2 515 516"/>
    </vehicle>
    <vehicle id="2wheeler_1_416" type="motorcycle" depart="18143.00" departLane="best">
        <route edges="-193 -816#2 -816#1 -816#0 298#0 298#2 816#0 816#1 816#2 193 -787#5 -787#4 -787#3 -787#2 -787#1 -787#0 1484#3 864#0 864#1 864#2 730#11 675 112 701#0 735 863#2 116 617#0 617#1 617#2 -622#3 -622#2 -622#1 -622#0 -920 -1486#3 -1488"/>
    </vehicle>
    <vehicle id="2wheeler_1_898" type="moped" depart="18145.00" departLane="best">
        <route edges="505 502#2 494#2 494#3 494#4 351#2 351#3 351#4 -350 -105 -519#3 -519#2 -519#1 -519#0 -582#10 -582#9 -582#8 -582#7 -582#6 -582#5 -582#4 -582#3 -582#2 -582#1 618#0 618#1 -691#5 -691#4 -691#3 -691#2 -691#0 726#0 726#1 726#2 857#2 857#3 736 879#1 879#2 879#3 879#4 879#5 879#6 879#7 879#8 879#11 878#1 878#2 878#3 878#4 695 734#0 734#1 734#2 734#3 734#4 732#0"/>
    </vehicle>
    <vehicle id="2wheeler_3_1147" type="motorcycle" depart="18147.00" departLane="best">
        <route edges="-124 -1268 -126 -1266 -125 -1271 -128 -1269#1 -1269#0 911#1 456 -913 -1422 -1285#2 -1282#2 -1282#1 -1282#0 -1287#1 -1287#0 851#3 851#0 -468#6 -468#5 -468#3 -468#2 -468#1 -468#0 1300#1 1408#0 1408#1 1408#2 1408#3 1408#4 1408#5 1408#6 1408#7 497#1 243 494#0 494#1 494#2 494#3 494#4 351#2 529#0 529#1 529#2 -212 -884#1 -884#0 860#0"/>
    </vehicle>
    <vehicle id="2wheeler_1_1050" type="motorcycle" depart="18149.00" departLane="best">
        <route edges="-215 -277 -693 280 732#0 732#1 732#2 732#3 747#0 282#1 282#2 -700#1 -700#0 -682#1 -682#0 879#7 879#8 879#11 878#1 878#2 -737#2 -737#0 15#6 15#7 15#0 16 887 -162 -315 -877"/>
    </vehicle>
    <vehicle id="2wheeler_3_42" type="motorcycle" depart="18164.00" departLane="best">
        <route edges="-1421 -1264 -1269#0 911#1 456 -913 -1422 -1285#2 -1282#2 -1282#1 -1282#0 -1287#1 -1287#0 851#3 851#0 -468#6 -468#5 -468#3 -468#2 -468#1 -468#0 1300#1 1408#0 1408#1 1408#2 1408#3 1408#4 1408#5 1408#6 1408#7 497#1 243 494#0 494#1 494#2 494#3 494#4 351#2 351#3 520#0 -524#1 -524#0 519#3"/>
    </vehicle>
    <vehicle id="2wheeler_1_440" type="motorcycle" depart="18179.00" departLane="best">
        <route edges="-587 573#1 440#8 569#4 585#3 585#4 174 -182 -677 -183 -716 -184 -710 185 281 -81 362 204 205#2 205#3 -197 -747#2 721#1 699#0 699#1 -282#1"/>
        <stop parkingArea="22451" duration="43200.00"/>
    </vehicle>
    <vehicle id="2wheeler_3_1051" type="moped" depart="18215.00" departLane="best">
        <route edges="221#1 180 771 85 441 290 1578 223#0 223#1 223#2 223#3 223#4 223#5 223#6 223#7 223#8 -927#3 -927#2 -927#1 -927#0 -816#1 -816#0 856#0 856#1 856#2 316#1 201 211#3 17 15#0 15#1 15#2 15#3 15#4 15#5 737#0 737#2 878#3 -733#3 -733#2 -733#1 -733#0 -692 679 -688 -689 -775 -793 -805 866 782 -719 -715"/>
    </vehicle>
    <vehicle id="2wheeler_3_1168" type="moped" depart="18224.00" departLane="best">
        <route edges="-1384#6 -1384#5 -1384#4 -1384#3 -1384#2 -1384#1 -1384#0 1379#5 1379#6 1379#7 1361#1 650#0 -652#2 -652#1 -652#0 1319#0 1319#1 1494#0 1494#1 1494#2 1320 1315#1 1315#2 -542#1 -542#0 -1312#5 -1312#4 -1312#3 -1312#2 -1312#1 -1312#0 137 1314 -1311#0 -138 -1313#1 -1313#0 -139 -1340#5 -1250#5 -1250#4 -1252#11 -1252#10 -1252#9 -1252#8 -1252#7 -1252#6 -1252#5 -1252#4 -1338#9 -1338#8 -1338#7 -1343#5 -1343#4 -1343#3 -1343#2"/>
    </vehicle>
    <vehicle id="2wheeler_2_186" type="moped" depart="18239.00" departLane="best">
        <route edges="-828#0 811#1 -790#0 903 902#3 -817#1 -817#0 895#3 895#4 800#0 800#1 800#2 791#5 791#0 791#1 791#2 1575 189#0 189#0-AddedOffRampEdge 189#1 886 732#2 732#3 732#4 732#5 857#0 857#1 -726#2 -726#1 -726#0 691#0 -588#2 867#0 867#1 604#1 604#2"/>
    </vehicle>
    <vehicle id="2wheeler_2_197" type="motorcycle" depart="18248.00" departLane="best">
        <route edges="1486#1 1486#2 1486#3 920 622#0 622#1 622#2 622#3 -617#2 -617#1 -617#0 111 862#0 709 701#2 888#0 888#1 1480#0 1480#1 1480#2 1480#3 741#0 741#1 879#11 878#1 878#2 -737#2 -737#0 15#6 15#7 15#0 16 887 -162 -315 10 318 812#2 -208 -893 902#0 902#1 -903 790#0 790#1 790#2 790#3"/>
    </vehicle>
    <vehicle id="2wheeler_2_1568" type="motorcycle" depart="18249.00" departLane="best">
        <route edges="1247#2 1247#3 1247#4 1300#1 1408#0 1408#1 1408#2 1408#3 1408#4 1408#5 1408#6 1408#7 497#1 243 494#0 494#1 494#2 494#3 494#4 351#2 351#3 351#4 -350 -105 -519#3 -519#2 -519#1 -519#0 -582#10 -582#9 -582#8 -582#7 -582#6 -582#5 -582#4 -583#2 -583#1 -583#0 593#5 564#0 588#1"/>
    </vehicle>
    <vehicle id="2wheeler_1_1140" type="motorcycle" depart="18276.00" departLane="best">
        <route edges="520#7 520#8 520#9 416#1 248#0 248#1 -567#0 -582#10 -582#9 -582#8 -582#7 -582#6 -582#5 -582#4 -582#3 -582#2 -582#1 618#0 618#1 -691#5 -691#4 -691#3 -691#2 -691#0 726#0 726#1 726#2 857#2 857#3 736 879#1 879#2 879#3 879#4 197 205#0 205#1 205#2 -202 211#1 210 -815#2 -815#1 -815#0 1492 895#2 895#3 803#0 885#0 885#1 -292#2 -292#1 -292#0 -790#1"/>
    </vehicle>
    <vehicle id="2wheeler_2_646" type="moped" depart="18287.00" departLane="best">
        <route edges="357 355#1 355#2 360#1 440#0 440#1 440#2 440#3 440#4 440#6 440#8 569#4 585#3 1481 593#0 593#1 593#2 593#3 593#4 593#5 564#0 588#1 588#2 691#2 -580 -632 -683#3 -683#2 -696 -622#3 -622#2 631 627#0 627#1"/>
    </vehicle>
    <vehicle id="2wheeler_1_91" type="motorcycle" depart="18354.00" departLane="best">
        <route edges="734#2 734#3 734#4 732#0 732#1 732#2 732#3 732#4 732#5 857#0 857#1 -726#2 -726#1 -726#0 691#0 -588#2 -588#1 -564#0 -593#5 583#0 583#1 -579#6 -579#5 -579#4 -579#3 -579#2 -579#1 -579#0 257#1 257#2 -521#1 -521#0 -106 499#0 499#1 499#2 495#0 -487 -491#0 -101 -499#3 -499#2"/>
    </vehicle>
    <vehicle id="2wheeler_3_358" type="motorcycle" depart="18398.00" departLane="best">
        <route edges="-125 -1271 -128 -1269#1 -1269#0 911#1 456 -913 -1422 -1285#2 -1282#2 -1282#1 -1282#0 -1287#1 -1287#0 851#3 851#0 -468#6 -468#5 -468#3 -468#2 -468#1 -468#0 1300#1 1408#0 1408#1 1408#2 1408#3 1408#4 1408#5 1408#6 1408#7 497#1 243 494#0 494#1 494#2 494#3 494#4 351#2 351#3 351#4 -350 -105 -519#3 -519#2 -519#1 -519#0 -582#10 -582#9 -582#8 -582#7 -582#6 -582#5 -582#4 -582#3 -582#2 -582#1 618#0 618#1 -691#5 -691#4 -691#3 -691#2 -691#0 726#0 726#1 726#2 857#2 857#3 736 879#1 879#2"/>
    </vehicle>
    <vehicle id="2wheeler_2_258" type="motorcycle" depart="18431.00" departLane="best">
        <route edges="471 -1293#2 -1293#1 -1293#0 239#1 103 497#1 243 494#0 494#1 494#2 494#3 494#4 351#2 351#3 351#4 -350 -105 -519#3 -519#2 -519#1 -519#0 -582#10 -582#9 -582#8 -582#7 -582#6 -582#5 -582#4 -582#3 -582#2 -582#1 618#0 618#1 -691#5 -691#4 -691#3 -691#2 -691#0 726#0 726#1 726#2 857#2 857#3 736 879#1 879#2 879#3 879#4 197 205#0 205#1 205#2 -202 211#1 210 -815#2 -815#1 -815#0 1492 895#2 895#3 803#0 885#0 885#1"/>
    </vehicle>
    <vehicle id="2wheeler_2_1022" type="motorcycle" depart="18453.00" departLane="best">
        <route edges="-896 644 603 1348#3 1348#4 1348#5 1348#6 1348#7 1340#3 1340#4 -1250#5 -1250#4 -1252#11 -1252#10 -1252#9 -1252#8 -1252#7 -1252#6 -1252#5 -1252#4 -1252#2 -1252#1 -1252#0 -1343#1 -1343#0 1341#14 1341#15 1341#16 918 920 622#0 622#1 622#2 622#3 -617#2 -617#1 -617#0 111 862#0 709 701#2 888#0 888#1 1480#0 1480#1 1480#2 1480#3 741#0 741#1 879#11 878#1 878#2 -737#2 -737#0 15#6 15#7 15#0 16 887 -162 -315 10 318 812#2 -208 -893 902#0 902#1 -903 790#0 790#1 790#2 293#0 293#1 -293#4 291 293#3 293#4 -293#1"/>
    </vehicle>
    <vehicle id="2wheeler_3_1721" type="moped" depart="18457.00" departLane="best">
        <route edges="221#1 180 771 85 441 290 1578 223#0 223#1 223#2 223#3 223#4 223#5 223#6 223#7 223#8 -927#3 -927#2 -927#1 -927#0 -816#1 -816#0 298#0 -929#7 -929#6 -929#5 -929#4 -929#3 -929#2 -929#1 -929#0 -1404#9 -1404#8 -1404#7 -1404#6 -1404#5 -1404#3 -1404#2 -1404#1 812#1 812#2 -208 -893 902#0 902#1 -903 790#0 790#1 790#2 790#3 190 -560 294#2 294#3 774 -294#4 -294#3"/>
        <stop parkingArea="22503" duration="43200.00"/>
    </vehicle>
    <vehicle id="2wheeler_GW1_462" type="motorcycle" depart="18463.00" departLane="best">
        <route edges="1406 196 844 145 1405#0 1405#1 194 1263 195 -1404#27 -1404#26 -1404#25 -1404#24 -1404#23 -1404#21 -1404#20 -1404#19 -1404#18 -1404#17 -1404#16 -1404#13 -1404#12 -1404#11 -1404#10 -1404#9 -1404#8 -1404#7 -1404#6 -1404#5 -1404#3 -1404#2 -1404#1 -1404#0 315 162 316#0 316#1 201 211#3 211#4 202 205#3 -197 -747#2 -747#1 -747#0 732#4 732#5 857#0 857#1 -726#2 -726#1 -720 -110 858#0 858#1 858#2 858#4 -683#3 -455"/>
    </vehicle>
    <vehicle id="2wheeler_1_362" type="motorcycle" depart="18480.00" departLane="best">
        <route edges="730#9 730#10 730#11 675 112 701#0 735 863#2 116 617#0 617#1 617#2 617#3 617#4 617#5 619 620 582#1 582#2 582#3 582#4 582#5 582#6 582#7 582#8 582#9 582#10 582#11 519#1 519#2 519#3 105 350 351#1 -494#4 -494#3 -494#2 -502#2 -502#1 -502#0 1420#0"/>
    </vehicle>
    <vehicle id="2wheeler_3_70" type="motorcycle" depart="18488.00" departLane="best">
        <route edges="1265 -1264 -1269#0 911#1 456 -913 -1422 -1285#2 -1282#2 -1282#1 -1282#0 -1287#1 -1287#0 851#3 851#0 -468#6 -468#5 -468#3 -468#2 -468#1 -468#0 1300#1 1408#0 1408#1 1408#2 1408#3 1408#4 1408#5 1408#6 1408#7 497#1 243 494#0 494#1 494#2 494#3 494#4 351#2 351#3 351#4 -350 -105 -519#3 -519#2 -519#1 -519#0 -582#10 -582#9 -582#8 -582#7 -582#6 -582#5 -582#4 -582#3 -582#2 -582#1 618#0 618#1 -691#5 -691#4 -691#3 -691#2 -691#0 726#0 726#1 726#2 857#2 857#3 736 879#1 879#2 879#3 879#4 197 205#0 205#1 205#2 -202 211#1 211#2 211#3 17 15#0 15#1 15#2 15#3 15#4 15#5"/>
    </vehicle>
    <vehicle id="2wheeler_3_1371" type="motorcycle" depart="18498.00" departLane="best">
        <route edges="-1269#0 911#1 456 -913 -1422 -1285#2 -1282#2 -1282#1 -1282#0 -1287#1 -1287#0 851#3 851#0 -468#6 -468#5 -468#3 -468#2 -468#1 -468#0 1300#1 1408#0 1408#1 1408#2 1408#3 1408#4 1408#5 1408#6 1408#7 497#1 243 494#0 494#1 494#2 494#3 494#4 351#2 351#3 351#4 -350 -105 -519#3 -519#2 -519#1 -519#0 -582#10 -582#9 -582#8 -582#7 -582#6 -582#5 -582#4 630#1 630#2 630#3 619 621#0 621#1"/>
    </vehicle>
    <vehicle id="2wheeler_3_1345" type="moped" depart="18504.00" departLane="best">
        <route edges="-1322#2 -1322#1 -1322#0 -310#2 -310#1 -310#0 309 341#1 -1363#3 -1363#2 -1363#1 -1363#0 1379#6 1379#7 1361#1 650#0 -652#2 -652#1 -652#0 1319#0 1319#1 1494#0 1494#1 1494#2 1320 1315#1 1315#2 -542#1 -542#0 -1312#5 -1312#4 -1312#3 -1312#2 -1312#1 -1312#0 137 1314 -1311#0 -138 -1313#1 -1313#0 -139 -1340#5 -1250#5 -1250#4 -1250#3 -1250#2 -1250#1 -1250#0 850#3 -1327#1 -1327#0 1341#0 1341#1 1341#3 1341#4 1341#5 1341#6 1341#7 1341#8 1341#9 1341#10 1341#11 1341#12 1341#13"/>
    </vehicle>
    <vehicle id="2wheeler_3_1217" type="motorcycle" depart="18519.00" departLane="best">
        <route edges="1405#0 1405#1 194 1263 195 -1404#27 -1404#26 -1404#25 -1404#24 -1404#23 -1404#21 -1404#20 -1404#19 -1404#18 -1404#17 -1404#16 -1404#13 -1404#12 -1404#11 -1404#10 -1404#9 -1404#8 -1404#7 -1404#6 -1404#5 -1404#3 -1404#2 -1404#1 -1404#0 315 162 316#0 316#1 201 211#3 211#4 202 205#3 -197 879#5 879#6 879#7 879#8 -741#1 -741#0 -1480#3 -1480#2 -1480#1 -1480#0 -888#1 -888#0 863#0 863#1 863#2 116 111 369#0"/>
    </vehicle>
    <vehicle id="2wheeler_3_1367" type="moped" depart="18523.00" departLane="best">
        <route edges="-1266 -125 -1271 -128 -1269#1 -1269#0 911#1 456 -913 -1422 -1285#2 -1282#2 -1282#1 -1282#0 -1287#1 -1287#0 851#3 851#0 -468#6 -468#5 -468#3 -468#2 -468#1 -468#0 1300#1 1408#0 1408#1 1408#2 1408#3 1408#4 1408#5 1408#6 1408#7 497#1 243 494#0 494#1 494#2 494#3 494#4 351#2 351#3 351#4 -350 -105 -519#3 -519#2 -519#1 -519#0 -582#10 -582#9 -582#8 -582#7 -582#6 -582#5 -582#4 -582#3 -582#2 -582#1 618#0 618#1 -691#5 -691#4 -691#3 -691#2 -691#0 726#0 726#1 726#2 857#2 857#3 736 879#1 879#2 879#3 879#4 -747#2"/>
    </vehicle>
    <vehicle id="2wheeler_3_740" type="motorcycle" depart="18526.00" departLane="best">
        <route edges="144 1387#0 1387#1 1386#1 926#0 926#1 117 1259 1578 223#0 223#1 223#2 223#3 223#4 223#5 223#6 223#7 223#8 223#9 223#10 295#1 295#2 818#0 818#1 908 730#0 730#1 730#2 730#3 730#4 730#5 730#6 730#7 730#8 730#9 730#10 730#11 675 112 701#0 735 863#2 116 617#0 683#0 683#1 683#2 683#3 632 580 -691#2 -588#2 -588#1 -564#0 -593#5 -593#4 -593#3 -593#2 -593#1 -593#0 586 569#1 569#2 439#0 439#2 439#4 439#5 439#6 439#7 440#1"/>
    </vehicle>
    <vehicle id="2wheeler_1_864" type="moped" depart="18541.00" departLane="best">
        <route edges="862#0 709 701#2 888#0 888#1 1480#0 1480#1 1480#2 1480#3 741#0 741#1 879#11 878#1 878#2 878#3 -733#3 -733#2 -733#1 -733#0 -692 679 -688 -689 -775 -793 -805"/>
    </vehicle>
    <vehicle id="2wheeler_3_1925" type="motorcycle" depart="18542.00" departLane="best">
        <route edges="-124 -1268 -126 -1266 -125 -1271 -128 -1269#1 -1269#0 911#1 456 -913 -1422 -1285#2 -1282#2 -1282#1 -1282#0 -1287#1 -1287#0 851#3 851#0 -468#6 -468#5 -468#3 -468#2 -468#1 -468#0 1300#1 1408#0 1408#1 1408#2 1408#3 1408#4 1408#5 1408#6 1408#7 497#1 243 494#0 494#1 494#2 494#3 494#4 351#2 529#0 529#1 529#2 -212 -884#1"/>
    </vehicle>
    <vehicle id="2wheeler_GW2_80" type="motorcycle" depart="18560.00" departLane="best">
        <route edges="-1388 144 1387#0 1387#1 1386#1 926#0 926#1 117 1259 1578 223#0 223#1 223#2 223#3 223#4 223#5 223#6 223#7 223#8 223#9 223#10 295#1 295#2 818#0 818#1 908 730#0 730#1 730#2 730#3 730#4 730#5 730#6 730#7 730#8 730#9 730#10 730#11 675 112 701#0 735 863#2 116 617#0 683#0 683#1 683#2 683#3 632 580 -691#2 -588#2 -588#1 -564#0 -593#5 -593#4 -593#3 -593#2 -593#1 -593#0 586 569#1 569#2 439#0 439#2 439#4 439#5 439#6 439#7 439#8 439#9 360#3 360#4 360#5 244#0 -354#2"/>
    </vehicle>
    <vehicle id="2wheeler_2_1210" type="moped" depart="18574.00" departLane="best">
        <route edges="-535 -1312#2 -1312#1 -1312#0 137 1314 -1311#0 -138 -1313#1 -1313#0 -139 -1340#5 -1250#5 -1250#4 -1252#11 -1252#10 -1252#9 -1252#8 -1252#7 -1252#6 -1252#5 -1252#4 -1252#2 -1252#1 -1252#0 -1343#1 -1343#0 1341#14 1341#15 1341#16 918 920 622#0 622#1 622#2 622#3 -617#2 -617#1 -617#0 111 862#0 709 701#2 888#0 888#1 1480#0 1480#1 1480#2 1480#3 741#0 741#1 879#11 878#1 878#2 -737#2 -737#0 15#6 15#7 -17"/>
    </vehicle>
    <vehicle id="2wheeler_3_1179" type="motorcycle" depart="18575.00" departLane="best">
        <route edges="451 456 -913 -1422 -1285#2 -1282#2 -1282#1 -1282#0 -1287#1 -1287#0 851#3 851#0 851#1 -1244#4 -1244#3 -1244#2 -1244#1 -1244#0 -1293#4 -1293#3 -1293#2 -467#1 -467#0 93 1487 -368#0 889#1 489#2 489#3 489#4 23 1303#1 1303#2 98 355#0 355#1 355#2 360#1 440#0 439#8 -530"/>
    </vehicle>
    <vehicle id="2wheeler_2_110" type="motorcycle" depart="18591.00" departLane="best">
        <route edges="1302#10 1302#11 1302#12 1302#13 1302#14 850#1 850#2 850#3 -1327#1 -1327#0 563#0 563#1 563#2 563#3 563#4 563#5 1334#0 1334#1 1334#2 595 630#2 630#3 -617#5 -617#4 -617#3 -617#2 -617#1 -617#0 111 862#0 709 701#2 888#0 888#1 1480#0 1480#1 1480#2 1480#3 741#0 741#1 879#11 878#1 878#2 878#3 -733#3 -733#2 -733#1 -733#0 -692 679 676 -690 689 688"/>
    </vehicle>
    <vehicle id="2wheeler_GW1_15" type="motorcycle" depart="18593.00" departLane="best">
        <route edges="420 148 1563 149 1561 164 422 83 419#0 431 469 415#3 415#4 1309#0 1309#1 1309#2 1309#3 1309#4 1309#5 1309#6 1309#7 -1311#1 -1311#0 -138 -1313#1 -1313#0 -139 -1340#5 -1250#5 -1250#4 -1252#11 -1252#10 -1252#9 -1252#8 -1252#7 -1252#6 -1252#5 -1252#4 -1252#2 -1252#1 -1252#0 -1343#1 -1343#0 1341#14 1341#15 1341#16 918 920 622#0 622#1 622#2 622#3 617#3 617#4 617#5 619 620 618#0 -604#2 -604#1 -604#0 -564#0"/>
    </vehicle>
    <vehicle id="2wheeler_2_7" type="motorcycle" depart="18596.00" departLane="best">
        <route edges="-637 1248#7 1248#8 1248#9 1248#10 1248#11 1248#12 -1256#7 -1256#6 -1256#5 -1256#4 -1256#3 -1256#2 -1256#1 -1256#0 -1372#0 -1369#3 -1369#2 -1369#1 1371 728#1 728#2 728#3 728#4 728#5 730#8 730#9 730#10 730#11 675 112 701#0 735 863#2 116 617#0 617#1 617#2 617#3 617#4 617#5 619 620 582#1 582#2 582#3 582#4 582#5 582#6 582#7 582#8 582#9 582#10 582#11 519#1 519#2 524#0 531 520#2 520#3 520#4 520#5 520#6 520#7 520#8"/>
    </vehicle>
    <vehicle id="2wheeler_GW2_422" type="motorcycle" depart="18599.00" departLane="best">
        <route edges="-891 -86 -449 88 450 -90 -454 -91 -463 -96 -486#1 483#1 483#2 -897 -538#1 -538#0 -1352#1 650#0 -652#2 -652#1 -652#0 1319#0 1319#1 1494#0 1494#1 1494#2 1320 1315#1 1315#2 -542#1 -542#0 -1312#5 -1312#4 -1312#3 -1312#2 -1312#1 -1312#0 137 1314 1423 200 944#0 944#1 944#2 944#3 1302#1 1302#2 1302#3 1302#4 1302#5 1302#6 1302#7 1302#8 1302#9 1302#10 1302#11"/>
    </vehicle>
    <vehicle id="2wheeler_3_335" type="motorcycle" depart="18605.00" departLane="best">
        <route edges="-666#1 -666#0 666#3 666#4 666#5 666#7 666#8 -310#0 309 341#1 -1363#3 -1363#2 -1363#1 -1363#0 1379#6 1379#7 1361#1 650#0 -652#2 -652#1 -652#0 1319#0 1319#1 1494#0 1494#1 1248#0 1248#1 1248#2 1248#3 1248#4 1248#5 1248#6 1248#7 1248#8 1248#9 1248#10 1248#11 1248#12 -1256#7 -1256#6 -1256#5 -1256#4 -1256#3 -1256#2 -1256#1 -1256#0 -1372#0 -1369#3 -1369#2 -1369#1 1371 728#1 728#2 728#3 728#4 728#5 730#8 717 698 1484#2 1484#3 743#0 743#1 888#1 1480#0 1480#1 1480#2 1480#3 741#0 741#1 879#11 878#1 878#2 878#3 -733#3 -733#2 -733#1 -733#0 -692 679 -688 -689 690 715 719 -782"/>
    </vehicle>
    <vehicle id="2wheeler_3_619" type="moped" depart="18679.00" departLane="best">
        <route edges="127 448 911#1 456 -913 -1422 -1285#2 -1282#2 -1282#1 -1282#0 -1287#1 -1287#0 851#3 851#0 -468#6 -468#5 -468#3 -468#2 -468#1 -468#0 1300#1 1408#0 1408#1 1408#2 1408#3 1408#4 1408#5 1408#6 1408#7 497#1 243 494#0 494#1 494#2 494#3 494#4 351#2 351#3 351#4 -350 -105 -519#3 -519#2 -519#1 -519#0 -582#10 -582#9 -582#8 -582#7 -582#6 -582#5 -582#4 -582#3 -582#2 -582#1 618#0 618#1 -691#5 -691#4 -691#3 -691#2 -691#0 726#0 726#1 726#2 857#2 857#3"/>
    </vehicle>
    <vehicle id="2wheeler_1_895" type="motorcycle" depart="18687.00" departLane="best">
        <route edges="-182 -677 -183 -716 -184 -710 185 281 -81 362 204 205#2 -202 211#1 211#2 211#3 17 15#0 16 887 316#0 -856#2 -856#1 -856#0 816#0 816#1 927#0"/>
    </vehicle>
    <vehicle id="2wheeler_3_2166" type="motorcycle" depart="18688.00" departLane="best">
        <route edges="-1264 -1269#0 911#1 456 -913 -1422 -1285#2 -1282#2 -1282#1 -1282#0 -1287#1 -1287#0 851#3 851#0 -468#6 -468#5 -468#3 -468#2 -468#1 -468#0 1300#1 1408#0 1408#1 1408#2 1408#3 1408#4 1408#5 1408#6 1408#7 497#1 243 494#0 494#1 494#2 494#3 494#4 351#2 351#3 351#4 -350 -105 -519#3 -519#2 -519#1 -519#0 -582#10 -582#9 -582#8 -582#7 -582#6 -582#5 -582#4 -582#3 -582#2 -582#1 618#0 618#1 -691#5 -691#4 -691#3 -691#2 -691#0 726#0 726#1 726#2 857#2 857#3 736 879#1 879#2 879#3 -366#2"/>
    </vehicle>
    <vehicle id="2wheeler_2_865" type="motorcycle" depart="18698.00" departLane="best">
        <route edges="1349#3 1349#4 1351#1 1351#2 1338#0 1338#1 1338#2 1338#3 1338#4 1338#5 1338#6 1338#7 1338#8 1338#9 -1252#2 -1252#1 -1252#0 -1343#1 -1343#0 1341#14 1341#15 1341#16 918 920 622#0 622#1 622#2 622#3 -617#2 -617#1 -617#0 111 862#0 709 701#2 888#0 888#1 1480#0 1480#1 1480#2 1480#3 741#0 741#1 879#11 878#1 878#2 -737#2 -737#0 15#6 15#7 15#0 15#1 15#2 -773 191 -815#2"/>
    </vehicle>
    <vehicle id="2wheeler_1_246" type="motorcycle" depart="18762.00" departLane="best">
        <route edges="-927#0 -816#1 -816#0 856#0 856#1 856#2 316#1 201 211#3 211#4 211#1 210 -815#2 -815#1 -1491#2 -1491#1"/>
    </vehicle>
    <vehicle id="2wheeler_2_1096" type="motorcycle" depart="18783.00" departLane="best">
        <route edges="-162 -315 10 318 -812#1 -1404#0 315 162 316#0 316#1 201 211#3 211#4 202 205#3 205#0 163 320 81 -281 -185 710 184 716 183 677 182 178 108 584#0 584#1 257#2 -521#1 -521#0 -106 499#0 499#1 499#2 495#0 -487 -491#0 -101 -499#3 -499#2 -499#1 -499#0 106 521#0 521#1"/>
    </vehicle>
    <vehicle id="2wheeler_3_135" type="motorcycle" depart="18788.00" departLane="best">
        <route edges="172 437 79 219 78 221#0 221#1 180 771 85 441 290 1578 223#0 223#1 223#2 223#3 223#4 223#5 223#6 223#7 223#8 223#9 223#10 295#1 295#2 818#0 818#1 213 299 443#0 443#1"/>
    </vehicle>
    <vehicle id="2wheeler_GW2_132" type="motorcycle" depart="18793.00" departLane="best">
        <route edges="-1388 144 1387#0 1387#1 1386#1 926#0 926#1 117 1259 1578 223#0 223#1 223#2 223#3 223#4 223#5 223#6 223#7 223#8 223#9 223#10 295#1 295#2 818#0 818#1 908 730#0 730#1 730#2 730#3 730#4 730#5 730#6 730#7 730#8 730#9 730#10 730#11 675 112 701#0 735 863#2 116 617#0 617#1 617#2 -622#3 -622#2 631 627#0 627#1"/>
    </vehicle>
    <vehicle id="2wheeler_2_418" type="motorcycle" depart="18808.00" departLane="best">
        <route edges="-1338#7 -1343#5 -1343#4 -1343#3 -1343#2 -1343#1 -1343#0 1341#14 1341#15 1341#16 918 920 622#0 622#1 622#2 622#3 -617#2 -617#1 -617#0 111 862#0 709 701#2 888#0"/>
    </vehicle>
    <vehicle id="2wheeler_GW2_392" type="motorcycle" depart="18865.00" departLane="best">
        <route edges="1380#0 1380#1 1380#2 1379#1 1379#2 1379#3 1379#4 1384#0 1384#1 1384#2 1384#3 1384#4 1384#5 1384#6 928#6 303 1573#1 883 290 1578 223#0 223#1 223#2 223#3 223#4 223#5 223#6 223#7 223#8 -927#3 -927#2 -927#1 -927#0 816#2 193 -787#5 -787#4 -787#3 -787#2 -787#1"/>
    </vehicle>
    <vehicle id="2wheeler_2_908" type="motorcycle" depart="18880.00" departLane="best">
        <route edges="-608 1338#9 -1252#2 -1252#1 -1252#0 -1343#1 -1343#0 1341#14 1341#15 1341#16 918 920 622#0 622#1 622#2 622#3 696 683#2 -455 -858#2 -858#1 -858#0 110 720 726#1 726#2 857#2 857#3 857#4 857#0 703#0 852 -705#4 367 705#3"/>
    </vehicle>
    <vehicle id="2wheeler_GW1_351" type="motorcycle" depart="18880.00" departLane="best">
        <route edges="430#0 434 172 437 79 219 78 221#0 221#1 180 771 85 441 290 1578 223#0 223#1 223#2 223#3 223#4 223#5 223#6 223#7 223#8 223#9 223#10 295#1 295#2 818#0 818#1 908 730#0 730#1 730#2 730#3 730#4 730#5 730#6 730#7 730#8 730#9 730#10 730#11 675 112 701#0 735 863#2 116 617#0 617#1 617#2 617#3 617#4 617#5 619 621#0 621#1 594 447 561#0 562#0 562#1 562#2 562#3 562#4 562#5 562#6 -416#1 -520#9 -520#8 -522"/>
        <stop parkingArea="22500" duration="43200.00"/>
    </vehicle>
    <vehicle id="2wheeler_3_664" type="motorcycle" depart="18897.00" departLane="best">
        <route edges="-1264 -1269#0 911#1 456 -913 -1422 -1285#2 -1282#2 -1282#1 -1282#0 -1287#1 -1287#0 851#3 851#0 -468#6 -468#5 -468#3 -468#2 -468#1 -468#0 1300#1 1408#0 1408#1 1408#2 1408#3 1408#4 1408#5 1408#6 1408#7 497#1 243 494#0 494#1 494#2 494#3 494#4 351#2 351#3 351#4 -350 -105 -519#3 -519#2 -519#1 -519#0 -582#10 -582#9 -582#8 -582#7 -582#6 -582#5 -582#4 630#1 630#2 630#3 -617#5 -617#4 -617#3 -617#2 -617#1 -617#0 111 862#0 862#1 -730#11 -730#10 -730#9 -730#8 -730#7 -730#6 -730#5 -730#4 -730#3 -730#2 813 730#1 730#2 730#3 730#4"/>
    </vehicle>
    <vehicle id="2wheeler_3_778" type="motorcycle" depart="18902.00" departLane="best">
        <route edges="217 845#3 442 341#1 -1363#3 -1363#2 -1363#1 -1363#0 1379#6 1379#7 1361#1 650#0 -652#2 -652#1 -652#0 1319#0 1319#1 1494#0 1494#1 1494#2 1320 1315#1 1315#2 -542#1 -542#0 -1312#5 -1312#4 -1312#3 -1312#2 -1312#1 -1312#0 137 1314 -1311#0 -138 -1313#1 -1313#0 -139 -1340#5 -1250#5 -1250#4 -1252#11 -1252#10 -1252#9 -1252#8 -1252#7 -1252#6 -1252#5 -1252#4 -1252#2 -1252#1 -1252#0 -1343#1 -1343#0 1341#14 1341#15 1341#16 918 920 919 625#1 609#0 609#1 609#2 601#1 601#2 -612"/>
    </vehicle>
    <vehicle id="2wheeler_2_473" type="motorcycle" depart="18909.00" departLane="best">
        <route edges="1244#2 1244#3 1244#4 851#2 851#3 851#0 -468#6 -468#5 -468#3 -468#2 -468#1 -468#0 1300#1 1408#0 1408#1 1408#2 1408#3 1408#4 1408#5 1408#6 1408#7 497#1 243 494#0 -242 -494#1 -494#0"/>
    </vehicle>
    <vehicle id="2wheeler_3_289" type="motorcycle" depart="18910.00" departLane="best">
        <route edges="-441 -85 -771 -180 218#0 307 436 221#1 180 771 85 441 290 1578 223#0 223#1 223#2 223#3 223#4 223#5 223#6 223#7 223#8 223#9 223#10 295#1 295#2 818#0 818#1 908 730#0 730#1 730#2 730#3 730#4 730#5 730#6 730#7 730#8 730#9 730#10 730#11 675 112 701#0 735 863#2 116 617#0 617#1 617#2 617#3 617#4 617#5 619 620 582#1 582#2 582#3 582#4 582#5 582#6 582#7 582#8 582#9 582#10 567#0 567#1 -248#0 -562#6 -562#5 -562#4 -562#3"/>
    </vehicle>
    <vehicle id="2wheeler_2_1020" type="moped" depart="18933.00" departLane="best">
        <route edges="-1377#4 -1377#3 -1377#2 -1377#1 -1377#0 -1368#2 -1368#1 -1369#3 -1369#2 -1369#1 1371 728#1 728#2 728#3 728#4 728#5 730#8 717 698 1484#2 1484#3 743#0 743#1 888#1 1480#0 1480#1 1480#2 1480#3 741#0 741#1 879#11 878#1 878#2 -737#2 -737#0 15#6 15#7 15#0 15#1 15#2 -773 191 -815#2 -815#1 -815#0 1492 895#2 895#3 803#0 885#0 885#1 358#2 294#0 294#1 294#2 294#3 774 -294#4 -294#3 -294#2"/>
        <stop parkingArea="22450" duration="43200.00"/>