<?xml version="1.0" encoding="UTF-8"?>

<!-- 
    Monaco SUMO Traffic (MoST) Scenario
    Copyright (C) 2018 
    Lara CODECA

    This program is free software: you can redistribute it and/or modify
    it under the terms of the GNU General Public License as published by
    the Free Software Foundation, either version 3 of the License, or
    (at your option) any later version.

    This program is distributed in the hope that it will be useful,
    but WITHOUT ANY WARRANTY; without even the implied warranty of
    MERCHANTABILITY or FITNESS FOR A PARTICULAR PURPOSE.  See the
    GNU General Public License for more details.

    You should have received a copy of the GNU General Public License
    along with this program.  If not, see <http://www.gnu.org/licenses/>.
-->

<routes xmlns:xsi="http://www.w3.org/2001/XMLSchema-instance" xsi:noNamespaceSchemaLocation="http://sumo.dlr.de/xsd/routes_file.xsd">
    <route id="38" edges="1418#13 1418#16 1418#17 1418#18 1418#19 1418#20 1418#21 841#0 -844 -938#0 -842#2" >
        <stop busStop="155621" duration="30.00" until="61.0"/>
        <stop busStop="155619" duration="30.00" until="163.0"/>
        <stop busStop="155476" duration="30.00" until="264.0"/>
        <stop busStop="155636" duration="30.00" until="327.0"/>
    </route>
    <route id="39" edges="842#2 938#0 844 -841#0 -1418#21 -1418#20 -1418#19 -1418#18 -1418#17 -1418#16 -1418#13" >
        <stop busStop="155468" duration="30.00" until="44.0"/>
        <stop busStop="155637" duration="30.00" until="100.0"/>
        <stop busStop="155618" duration="30.00" until="211.0"/>
        <stop busStop="155620" duration="30.00" until="286.0"/>
        <stop busStop="155622" duration="30.00" until="350.0"/>
    </route>
    <route id="31" edges="-830#0 -1375#0 -1393#6 -1393#5 -1393#4 -1393#3 -1393#2 -1393#1 -1393#0 -1394#1 1399 -1401#0" >
        <stop busStop="155605" duration="30.00" until="37.0"/>
        <stop busStop="155609" duration="30.00" until="517.0"/>
    </route>
    <route id="28" edges="849 -825 -1400#0 -1401#0" >
        <stop busStop="155613" duration="30.00" until="73.0"/>
        <stop busStop="155472" duration="30.00" until="226.0"/>
        <stop busStop="155609" duration="30.00" until="611.0"/>
    </route>
    <route id="36" edges="-1402 -1399 1394#1 1394#2 1393#1 1393#2 1393#3 1393#4 1393#5 1393#6 1393#7 830#0" >
        <stop busStop="155608" duration="30.00" until="40.0"/>
        <stop busStop="155471" duration="30.00" until="489.0"/>
    </route>
    <route id="29" edges="-1402 1401#1 825 -1419#0" >
        <stop busStop="155608" duration="30.00" until="40.0"/>
        <stop busStop="155603" duration="30.00" until="448.0"/>
        <stop busStop="155612" duration="30.00" until="595.0"/>
    </route>
    <route id="33" edges="1613 166 -465 -1298#2 -1298#1 -1298#0 -919#0" >
        <stop busStop="155581" duration="30.00" until="44.0"/>
        <stop busStop="155639" duration="30.00" until="136.0"/>
        <stop busStop="155517" duration="30.00" until="276.0"/>
        <stop busStop="155515" duration="30.00" until="338.0"/>
        <stop busStop="155593" duration="30.00" until="500.0"/>
        <stop busStop="155595" duration="30.00" until="565.0"/>
        <stop busStop="155600" duration="30.00" until="669.0"/>
    </route>
    <route id="32" edges="919#0 919#1 1298#1 -1295#2 -1295#1 -1295#0 -1300#1 -1300#0 856#3 856#0 856#1 856#2 1300#0 1300#1 1295#0 1295#1 1295#2 1298#2 -881 -166 464" >
        <stop busStop="155599" duration="30.00" until="65.0"/>
        <stop busStop="155596" duration="30.00" until="178.0"/>
        <stop busStop="155594" duration="30.00" until="273.0"/>
        <stop busStop="155592" duration="30.00" until="652.0"/>
        <stop busStop="155519" duration="30.00" until="755.0"/>
        <stop busStop="155518" duration="30.00" until="824.0"/>
        <stop busStop="155516" duration="30.00" until="963.0"/>
        <stop busStop="155635" duration="30.00" until="1048.0"/>
    </route>
    <route id="35" edges="830#0 830#1 830#2 830#3 830#4 830#5 830#6 830#7 830#8 303#1 303#2 303#3 216#0 216#1 216#2 216#3 216#4 216#5 216#6 216#7 216#8 -933#3 -933#2 -933#1 -933#0 -821#1 -821#0 294#0 294#1 294#2 294#3 821#0 821#1" >
        <stop busStop="155471" duration="30.00" until="38.0"/>
        <stop busStop="155479" duration="30.00" until="194.0"/>
        <stop busStop="155461" duration="30.00" until="331.0"/>
        <stop busStop="155460" duration="30.00" until="638.0"/>
        <stop busStop="155478" duration="30.00" until="790.0"/>
        <stop busStop="155470" duration="30.00" until="895.0"/>
        <stop busStop="155496" duration="30.00" until="1052.0"/>
    </route>
    <route id="42" edges="-678 -681 694 736#0 736#1 736#2 736#3 883#4 697 737#0 737#1 737#2 737#3 737#4 735#0 735#1 735#2 735#3 735#4 735#5 862#0 862#1 -729#2 -729#1 -729#0 693#0 693#1 693#2 -582 -634 -863#4 -863#2 -863#1 -863#0 -729#0 693#0 693#1 693#2 693#3 693#4 693#5 -620#1 -620#0 584#1 584#2 584#3 632#0 632#1 632#2 632#3 -619#5 -619#4 -619#3 -619#2 -619#1 -619#0 102 867#0 867#1 -733#13 -733#12 -733#11 -733#10 -733#9 -733#8 -733#7 -733#6 -733#5 -733#4 -733#3 -733#2 817" >
        <stop busStop="155557" duration="30.00" until="37.0"/>
        <stop busStop="155559" duration="30.00" until="181.0"/>
        <stop busStop="155485" duration="30.00" until="237.0"/>
        <stop busStop="155533" duration="30.00" until="313.0"/>
        <stop busStop="155534" duration="30.00" until="369.0"/>
        <stop busStop="155537" duration="30.00" until="610.0"/>
        <stop busStop="155532" duration="30.00" until="692.0"/>
        <stop busStop="155498" duration="30.00" until="839.0"/>
        <stop busStop="155531" duration="30.00" until="912.0"/>
        <stop busStop="155538" duration="30.00" until="987.0"/>
        <stop busStop="155488" duration="30.00" until="1115.0"/>
        <stop busStop="155560" duration="30.00" until="1179.0"/>
        <stop busStop="155539" duration="30.00" until="1351.0"/>
        <stop busStop="155576" duration="30.00" until="1416.0"/>
        <stop busStop="155490" duration="30.00" until="1478.0"/>
        <stop busStop="155578" duration="30.00" until="1561.0"/>
    </route>
    <route id="40" edges="-678 -681 694 736#0 736#1 736#2 736#3 883#4 697 737#0 737#1 737#2 737#3 737#4 735#0 735#1 735#2 735#3 735#4 735#5 862#0 862#1 -729#2 -729#1 -729#0 693#0 -270 582 -693#2 -693#1 -693#0 729#0 729#1 729#2 862#2 862#3 862#4 862#0 705#0 705#1 705#2 680 567 571#2 571#3 571#4 587#3 1496 595#0 595#1 595#2 595#3 595#4 595#5 -574#2 -574#1 584#1 584#2 584#3 632#0 578 873 568 576 591 570 -584#9 -584#8 -584#7 -584#6 -584#5 -584#4 632#0 578 873 568 576 591 570 584#10 584#11 584#12 520#1 520#2 520#4 95#1 350#1 -494#4 -494#3 -494#2 235" >
        <stop busStop="155557" duration="30.00" until="38.0"/>
        <stop busStop="155559" duration="30.00" until="196.0"/>
        <stop busStop="155485" duration="30.00" until="253.0"/>
        <stop busStop="155533" duration="30.00" until="323.0"/>
        <stop busStop="155534" duration="30.00" until="378.0"/>
        <stop busStop="155535" duration="30.00" until="463.0"/>
        <stop busStop="155536" duration="30.00" until="812.0"/>
        <stop busStop="155484" duration="30.00" until="891.0"/>
        <stop busStop="155492" duration="30.00" until="949.0"/>
        <stop busStop="155491" duration="30.00" until="1021.0"/>
        <stop busStop="155500" duration="30.00" until="1090.0"/>
        <stop busStop="155498" duration="30.00" until="1158.0"/>
        <stop busStop="155502" duration="30.00" until="1299.0"/>
        <stop busStop="155570" duration="30.00" until="1484.0"/>
        <stop busStop="155568" duration="30.00" until="1548.0"/>
        <stop busStop="155566" duration="30.00" until="1624.0"/>
        <stop busStop="155607" duration="30.00" until="1716.0"/>
    </route>
    <route id="46" edges="439#9 359#3 359#4 359#5 359#0 359#1 440#0 440#2 440#3 440#6 440#8 571#4 587#3 1496 595#0 595#1 595#2 595#3 595#4 595#5 -574#2 -574#1 584#1 584#2 584#3 632#0 632#1 632#2 632#3 -619#5 -619#4 -619#3 -619#2 -619#1 -619#0 102 867#0 867#1 -733#13 -869#2 -869#1 -869#0 1499#1 1499#2 790#0 790#1 790#2 790#3 790#4 790#5 790#6 -821#1 -821#0 294#0 294#1 294#2 861#0 861#1 861#2 313#1 193 204#3 8 6#0 7 892 313#0 -861#2 -861#1 -861#0 294#3 821#0 821#1" >
        <stop busStop="155524" duration="30.00" until="47.0"/>
        <stop busStop="155650" duration="30.00" until="106.0"/>
        <stop busStop="155521" duration="30.00" until="166.0"/>
        <stop busStop="155549" duration="30.00" until="251.0"/>
        <stop busStop="155523" duration="30.00" until="312.0"/>
        <stop busStop="155492" duration="30.00" until="374.0"/>
        <stop busStop="155491" duration="30.00" until="428.0"/>
        <stop busStop="155500" duration="30.00" until="479.0"/>
        <stop busStop="155498" duration="30.00" until="560.0"/>
        <stop busStop="155531" duration="30.00" until="637.0"/>
        <stop busStop="155538" duration="30.00" until="721.0"/>
        <stop busStop="155488" duration="30.00" until="828.0"/>
        <stop busStop="155644" duration="30.00" until="914.0"/>
        <stop busStop="155548" duration="30.00" until="982.0"/>
        <stop busStop="155640" duration="30.00" until="1072.0"/>
        <stop busStop="155527" duration="30.00" until="1185.0"/>
        <stop busStop="155497" duration="30.00" until="1459.0"/>
        <stop busStop="155496" duration="30.00" until="1526.0"/>
    </route>
    <route id="41" edges="235 494#1 494#2 494#3 494#4 350#2 530#0 530#1 530#2 -889#0 860#0 860#1 860#2 860#3 860#4 -521#9 -521#8 -521#6 -521#5 -521#4 -521#3 -521#2 -532 -525#0 -520#2 -520#1 -520#0 -584#11 -584#10 -570 -591 -576 -568 -873 -578 632#1 632#2 632#3 621 622 620#0 620#1 -693#5 -693#4 -693#3 -693#2 -590#2 872#0 872#1 -606#0 590#1 590#2 -693#1 -693#0 729#0 729#1 729#2 862#2 274#0 71#1 -176 713 175 719 174 679 173 170 571#1 571#2 571#3 571#4 587#3 587#4 165 -173 -679 -174 -719 -175 -713 176 277 -274#0 862#3 739 884#1 884#2 884#3 884#4 884#5 884#6 884#7 884#8 884#11 883#1 883#2 883#3 883#4 697 737#0 737#1 -177 740#2 883#3 -736#3 -736#2 -736#1 -736#0 -694 681 -691 692 -678" >
        <stop busStop="155607" duration="30.00" until="42.0"/>
        <stop busStop="155574" duration="30.00" until="159.0"/>
        <stop busStop="155565" duration="30.00" until="383.0"/>
        <stop busStop="155569" duration="30.00" until="505.0"/>
        <stop busStop="155575" duration="30.00" until="592.0"/>
        <stop busStop="155503" duration="30.00" until="757.0"/>
        <stop busStop="155504" duration="30.00" until="933.0"/>
        <stop busStop="155573" duration="30.00" until="1094.0"/>
        <stop busStop="155501" duration="30.00" until="1275.0"/>
        <stop busStop="155563" duration="30.00" until="1327.0"/>
        <stop busStop="155559" duration="30.00" until="1429.0"/>
        <stop busStop="155557" duration="30.00" until="1728.0"/>
    </route>
    <route id="45" edges="-235 -494#1 -494#0 488 90 232#1 93 497#1 236 494#0 494#1 494#2 494#3 494#4 350#2 530#0 530#1 530#2 -889#0 860#0 860#1 860#2 860#3 860#4 -521#9 -521#8 -521#6 -521#5 -521#4 -521#3 -521#2 -532 -525#0 -520#2 -520#1 -520#0 -584#11 -584#10 -570 -591 -576 -568 -873 -578 632#1 632#2 632#3 -619#5 -619#4 -619#3 -619#2 -619#1 -619#0 102 867#0 711 703#2 893#0 893#1 893#2 893#3 893#4 893#5 -714#1 727 883#2 883#3 883#4 697 737#0 737#1 737#2 737#3 737#4 281 707#0 707#1 707#2 -366 -707#3 -707#2 -707#1 -707#0 371 179 1596 1595" >
        <stop busStop="155526" duration="30.00" until="37.0"/>
        <stop busStop="155522" duration="30.00" until="147.0"/>
        <stop busStop="155604" duration="30.00" until="208.0"/>
        <stop busStop="155574" duration="30.00" until="336.0"/>
        <stop busStop="155565" duration="30.00" until="543.0"/>
        <stop busStop="155569" duration="30.00" until="683.0"/>
        <stop busStop="155575" duration="30.00" until="782.0"/>
        <stop busStop="155531" duration="30.00" until="874.0"/>
        <stop busStop="155538" duration="30.00" until="961.0"/>
        <stop busStop="155488" duration="30.00" until="1089.0"/>
        <stop busStop="155540" duration="30.00" until="1156.0"/>
        <stop busStop="155486" duration="30.00" until="1240.0"/>
        <stop busStop="155487" duration="30.00" until="1300.0"/>
        <stop busStop="155559" duration="30.00" until="1364.0"/>
        <stop busStop="155562" duration="30.00" until="1423.0"/>
        <stop busStop="155529" duration="30.00" until="1662.0"/>
    </route>
    <route id="49" edges="439#9 359#3 359#4 359#5 359#0 359#1 440#0 440#2 440#3 440#6 440#8 571#4 587#3 1496 595#0 595#1 595#2 595#3 595#4 595#5 566#0 590#0 590#1 872#0 872#1 606#1 606#2 620#1 -693#5 -693#4 -693#3 -693#2 -590#2 872#0 872#1 -606#0 590#1 590#2 -693#1 -693#0 729#0 729#1 729#2 862#2 274#0 71#1 -176 713 175 719 174 679 173 170 571#1 571#2 571#3 571#4 587#3 587#4 165 -173 -679 -174 -719 -175 -713 176 277 -274#0 862#3 739 884#1 884#2 884#3 884#4 884#5 884#6 884#7 884#8 884#11 883#1 883#2 883#3 883#4 697 737#0 737#1 737#2 737#3 737#4 281 707#0 707#1 707#2 -366 -707#3 -707#2 -707#1 -707#0 371 179 1596 1595" >
        <stop busStop="155524" duration="30.00" until="50.0"/>
        <stop busStop="155650" duration="30.00" until="112.0"/>
        <stop busStop="155521" duration="30.00" until="173.0"/>
        <stop busStop="155549" duration="30.00" until="257.0"/>
        <stop busStop="155523" duration="30.00" until="343.0"/>
        <stop busStop="155492" duration="30.00" until="405.0"/>
        <stop busStop="155491" duration="30.00" until="460.0"/>
        <stop busStop="155500" duration="30.00" until="524.0"/>
        <stop busStop="155503" duration="30.00" until="633.0"/>
        <stop busStop="155504" duration="30.00" until="768.0"/>
        <stop busStop="155573" duration="30.00" until="964.0"/>
        <stop busStop="155501" duration="30.00" until="1188.0"/>
        <stop busStop="155563" duration="30.00" until="1240.0"/>
        <stop busStop="155559" duration="30.00" until="1353.0"/>
        <stop busStop="155562" duration="30.00" until="1413.0"/>
        <stop busStop="155529" duration="30.00" until="1665.0"/>
    </route>
    <route id="47" edges="821#1 821#2 -790#5 -790#4 -790#3 -790#2 -790#1 -790#0 1499#3 1499#0 1499#1 1499#2 790#0 790#1 790#2 790#3 790#4 -751#6 -751#5 -751#4 742#0 742#1 742#3 742#4 710#0 710#1 751#1 751#2 751#3 751#4 751#5 751#6 -790#4 -790#3 -790#2 -790#1 -790#0 1499#3 1499#0 869#0 869#1 869#2 733#13 677 738 868#2 619#0 619#1 619#2 619#3 619#4 619#5 621 622 584#1 584#2 584#3 584#4 -585#2 -585#1 -585#0 -595#4 -595#3 -595#2 -595#1 -595#0 588 571#1 571#2 439#0 439#2 439#4 439#6 524 529 440#2 440#3 440#6 440#8 571#4 587#3 571#0 571#1 571#2 439#0 439#2 439#4 439#6 439#7 439#9" >
        <stop busStop="155496" duration="30.00" until="52.0"/>
        <stop busStop="155546" duration="30.00" until="125.0"/>
        <stop busStop="155640" duration="30.00" until="306.0"/>
        <stop busStop="155547" duration="30.00" until="575.0"/>
        <stop busStop="155564" duration="30.00" until="679.0"/>
        <stop busStop="155520" duration="30.00" until="784.0"/>
        <stop busStop="155571" duration="30.00" until="878.0"/>
        <stop busStop="155498" duration="30.00" until="987.0"/>
        <stop busStop="155567" duration="30.00" until="1116.0"/>
        <stop busStop="155528" duration="30.00" until="1201.0"/>
        <stop busStop="155484" duration="30.00" until="1256.0"/>
        <stop busStop="155549" duration="30.00" until="1468.0"/>
        <stop busStop="155572" duration="30.00" until="1652.0"/>
        <stop busStop="155550" duration="30.00" until="1708.0"/>
        <stop busStop="155524" duration="30.00" until="1762.0"/>
    </route>
    <route id="52" edges="755#8 733#3 733#4 733#5 733#6 733#7 733#8 733#9 733#10 276 -733#9 -733#8 -733#7 -733#6 -733#5 -733#4 -733#3 -733#2 817 733#1 733#2 733#3 733#4 733#5 733#6 733#7 733#8 733#9 733#10 733#11 733#12 -869#2 -869#1 -869#0 1499#1 1499#2 790#0 790#1 790#2 790#3 790#4 790#5 790#6 -821#1 -821#0 294#0 294#1 294#2 861#0 861#1 861#2 313#1 193 204#3 8 6#0 6#1 6#2 6#3 6#4 6#5 740#0 740#2 883#3 883#4 697 737#0 737#1 737#2 737#3 737#4 281 707#0 707#1 707#2 -366 -707#3 -707#2 -707#1 -707#0 371 179 1596 1595" >
        <stop busStop="155552" duration="30.00" until="41.0"/>
        <stop busStop="155489" duration="30.00" until="321.0"/>
        <stop busStop="155577" duration="30.00" until="492.0"/>
        <stop busStop="155510" duration="30.00" until="554.0"/>
        <stop busStop="155553" duration="30.00" until="687.0"/>
        <stop busStop="155644" duration="30.00" until="749.0"/>
        <stop busStop="155548" duration="30.00" until="840.0"/>
        <stop busStop="155640" duration="30.00" until="931.0"/>
        <stop busStop="155527" duration="30.00" until="1026.0"/>
        <stop busStop="155558" duration="30.00" until="1114.0"/>
        <stop busStop="155495" duration="30.00" until="1193.0"/>
        <stop busStop="155556" duration="30.00" until="1330.0"/>
        <stop busStop="155559" duration="30.00" until="1382.0"/>
        <stop busStop="155562" duration="30.00" until="1442.0"/>
        <stop busStop="155529" duration="30.00" until="1702.0"/>
    </route>
    <route id="44" edges="1595 794#4 794#5 794#0 347 357#0 357#1 357#2 290#0 290#1 562 -793#2 -793#1 -793#0 908 907#3 907#4 898 -816#1 -1418#0 312 153 313#0 313#1 193 204#3 8 6#0 6#1 6#2 6#3 6#4 6#5 740#0 740#2 883#3 883#4 883#0 883#1 883#2 -740#2 -740#0 6#6 6#7 -8 204#4 194 198#3 -188 884#5 884#6 884#7 884#8 -744#1 -744#0 -1495#3 -1495#2 -1495#1 -1495#0 893#2 893#3 893#4 893#5 912#0 912#1 751#0 751#1 751#2 751#3 742#0 742#1 742#3 742#4 710#0 710#1 -751#0 -912#1 -912#0 -893#5 -893#4 -893#3 -893#2 -893#1 -893#0 868#0 868#1 868#2 619#0 619#1 619#2 619#3 619#4 619#5 621 622 584#1 584#2 584#3 632#0 578 873 568 576 591 570 -584#9 -584#8 -584#7 -584#6 -584#5 -584#4 632#0 578 873 568 576 591 570 584#10 584#11 584#12 520#1 520#2 520#4 95#1 350#1 -494#4 -494#3 -494#2 -494#1 -235" >
        <stop busStop="155529" duration="30.00" until="44.0"/>
        <stop busStop="155543" duration="30.00" until="112.0"/>
        <stop busStop="155499" duration="30.00" until="191.0"/>
        <stop busStop="155542" duration="30.00" until="243.0"/>
        <stop busStop="155643" duration="30.00" until="427.0"/>
        <stop busStop="155629" duration="30.00" until="554.0"/>
        <stop busStop="155556" duration="30.00" until="653.0"/>
        <stop busStop="155541" duration="30.00" until="1119.0"/>
        <stop busStop="155477" duration="30.00" until="1189.0"/>
        <stop busStop="155520" duration="30.00" until="1276.0"/>
        <stop busStop="155571" duration="30.00" until="1382.0"/>
        <stop busStop="155498" duration="30.00" until="1471.0"/>
        <stop busStop="155502" duration="30.00" until="1590.0"/>
        <stop busStop="155570" duration="30.00" until="1727.0"/>
        <stop busStop="155568" duration="30.00" until="1806.0"/>
        <stop busStop="155566" duration="30.00" until="1875.0"/>
        <stop busStop="155526" duration="30.00" until="1992.0"/>
    </route>
    <route id="48" edges="1595 794#4 794#5 794#0 347 357#0 357#1 357#2 290#0 290#1 562 -793#2 -793#1 -793#0 908 907#3 -822#1 -822#0 900#3 900#4 803#0 803#1 803#2 794#5 794#0 794#1 794#2 1594 180#0 180#1 891 735#2 735#3 735#4 735#5 862#0 862#1 -729#2 -729#1 -729#0 693#0 693#1 693#2 -582 -634 -863#4 -863#2 -863#1 -863#0 -729#0 693#0 693#1 693#2 693#3 693#4 693#5 -620#1 -620#0 584#1 584#2 584#3 584#4 -585#2 -585#1 -585#0 -595#4 -595#3 -595#2 -595#1 -595#0 588 571#1 571#2 439#0 439#2 439#4 439#6 524 529 440#2 440#3 440#6 440#8 571#4 587#3 571#0 571#1 571#2 439#0 439#2 439#4 439#6 439#7 439#9" >
        <stop busStop="155529" duration="30.00" until="46.0"/>
        <stop busStop="155543" duration="30.00" until="112.0"/>
        <stop busStop="155499" duration="30.00" until="178.0"/>
        <stop busStop="155542" duration="30.00" until="231.0"/>
        <stop busStop="155643" duration="30.00" until="389.0"/>
        <stop busStop="155649" duration="30.00" until="473.0"/>
        <stop busStop="155544" duration="30.00" until="541.0"/>
        <stop busStop="155533" duration="30.00" until="626.0"/>
        <stop busStop="155534" duration="30.00" until="682.0"/>
        <stop busStop="155537" duration="30.00" until="900.0"/>
        <stop busStop="155532" duration="30.00" until="969.0"/>
        <stop busStop="155498" duration="30.00" until="1148.0"/>
        <stop busStop="155567" duration="30.00" until="1295.0"/>
        <stop busStop="155528" duration="30.00" until="1397.0"/>
        <stop busStop="155484" duration="30.00" until="1450.0"/>
        <stop busStop="155549" duration="30.00" until="1622.0"/>
        <stop busStop="155572" duration="30.00" until="1805.0"/>
        <stop busStop="155550" duration="30.00" until="1861.0"/>
        <stop busStop="155524" duration="30.00" until="1917.0"/>
    </route>
    <route id="43" edges="817 733#1 733#2 733#3 733#4 733#5 733#6 733#7 733#8 733#9 733#10 276 -733#9 -733#8 -733#7 -733#6 -733#5 -733#4 -733#3 -733#2 817 733#1 733#2 733#3 733#4 733#5 733#6 733#7 733#8 733#9 733#10 733#11 733#12 733#13 677 738 868#2 619#0 619#1 619#2 619#3 619#4 619#5 621 622 620#0 620#1 -693#5 -693#4 -693#3 -693#2 -590#2 872#0 872#1 -606#0 590#1 590#2 -693#1 -693#0 729#0 729#1 729#2 862#2 274#0 71#1 -176 713 175 719 174 679 173 170 571#1 571#2 571#3 571#4 587#3 587#4 165 -173 -679 -174 -719 -175 -713 176 277 -274#0 862#3 739 884#1 884#2 884#3 884#4 884#5 884#6 884#7 884#8 884#11 883#1 883#2 883#3 -736#3 -736#2 -736#1 -736#0 -694 681 -691 692 -678" >
        <stop busStop="155578" duration="30.00" until="37.0"/>
        <stop busStop="155489" duration="30.00" until="378.0"/>
        <stop busStop="155579" duration="30.00" until="527.0"/>
        <stop busStop="155510" duration="30.00" until="629.0"/>
        <stop busStop="155553" duration="30.00" until="800.0"/>
        <stop busStop="155520" duration="30.00" until="925.0"/>
        <stop busStop="155571" duration="30.00" until="1013.0"/>
        <stop busStop="155503" duration="30.00" until="1108.0"/>
        <stop busStop="155504" duration="30.00" until="1279.0"/>
        <stop busStop="155573" duration="30.00" until="1460.0"/>
        <stop busStop="155501" duration="30.00" until="1688.0"/>
        <stop busStop="155563" duration="30.00" until="1741.0"/>
        <stop busStop="155525" duration="30.00" until="1868.0"/>
        <stop busStop="155557" duration="30.00" until="2074.0"/>
    </route>
    <route id="53" edges="1594 180#0 180#1 891 735#2 735#3 735#4 735#5 862#0 862#1 862#2 862#3 739 884#1 884#2 884#3 884#4 884#5 884#6 884#7 884#8 884#11 883#1 883#2 -740#2 -740#0 6#6 6#7 6#0 7 892 313#0 -861#2 -861#1 -861#0 294#3 294#0 294#1 294#2 861#0 861#1 861#2 313#1 193 204#3 8 6#0 7 892 313#0 -861#2 -861#1 -861#0 294#3 821#0 821#1 821#2 -790#5 -790#4 -790#3 -790#2 -790#1 -790#0 1499#3 1499#0 1499#1 1499#2 790#0 790#1 790#2 790#3 790#4 -751#6 -751#5 -751#4 742#0 742#1 742#3 742#4 710#0 710#1 751#1 751#2 751#3 751#4 751#5 751#6 -790#4 -790#3 -790#2 -790#1 -790#0 1499#3 1499#0 869#0 869#1 869#2 -733#12 -733#11 -733#10 -733#9 -733#8 -733#7 -733#6 -733#5 -733#4 -733#3 -755#8 -755#7 -755#6 -755#5 -755#4 -755#3 -283 755#4 755#5 755#6 755#7 755#8" >
        <stop busStop="155544" duration="30.00" until="39.0"/>
        <stop busStop="155533" duration="30.00" until="135.0"/>
        <stop busStop="155534" duration="30.00" until="190.0"/>
        <stop busStop="155501" duration="30.00" until="250.0"/>
        <stop busStop="155563" duration="30.00" until="304.0"/>
        <stop busStop="155555" duration="30.00" until="381.0"/>
        <stop busStop="155467" duration="30.00" until="495.0"/>
        <stop busStop="155545" duration="30.00" until="633.0"/>
        <stop busStop="155497" duration="30.00" until="805.0"/>
        <stop busStop="155496" duration="30.00" until="872.0"/>
        <stop busStop="155546" duration="30.00" until="970.0"/>
        <stop busStop="155640" duration="30.00" until="1119.0"/>
        <stop busStop="155547" duration="30.00" until="1364.0"/>
        <stop busStop="155564" duration="30.00" until="1445.0"/>
        <stop busStop="155560" duration="30.00" until="1501.0"/>
        <stop busStop="155539" duration="30.00" until="1581.0"/>
        <stop busStop="155462" duration="30.00" until="1648.0"/>
        <stop busStop="155490" duration="30.00" until="1721.0"/>
        <stop busStop="155552" duration="30.00" until="1936.0"/>
    </route>
    <route id="34" edges="-830#0 -1375#0 -1393#6 -1393#5 1398#0 1398#1 1398#3 1398#4 1398#5 1398#6 1398#7 -935#5 -935#4 -935#3 -935#2 -935#0 -853#0 -830#7 -830#6 -830#5 -830#4 -830#3 -830#2 -830#1 663 445 -1425#0 830#2 830#3 830#4 830#5 830#6 830#7 830#8 1523#0 -1532 -1534#1 -1534#0 -1535 -1523#0 -303#0 853#0 935#0 935#2 935#3 935#4 935#5 935#6 300 1592#1 929#0 757 932#1 1597 216#0 216#1 216#2 -1422#11 -1410#2 -1410#1 -1410#0 -216#3 -216#2 -216#1 298 216#2 216#3 216#4 216#5 216#6 216#7 216#8 216#9 216#10 291#1 291#2 291#3 291#0 -216#10 -216#9 -216#8 -216#7 -216#6 -216#5 -216#4 -216#3 -1422#11 -1410#2 -1410#1 -1410#0 216#4 216#5 216#6 216#7 216#8 216#9 216#10 291#1 291#2 291#3 291#0 -216#10 -216#9 -216#8 -216#7 -216#6 -216#5 -216#4 -216#3 -1422#11 -1410#2 -1410#1 -1410#0 216#4 216#5 216#6 216#7 216#8 -933#3 -933#2 -933#1 -933#0 821#2 -790#5 -790#4 -790#3 -790#2 -790#1 -790#0 1499#3 1499#0 1499#1 1499#2 790#0 790#1 790#2 790#3 790#4 790#5 790#6" >
        <stop busStop="155605" duration="30.00" until="37.0"/>
        <stop busStop="155481" duration="30.00" until="689.0"/>
        <stop busStop="155465" duration="30.00" until="1435.0"/>
        <stop busStop="155480" duration="30.00" until="2116.0"/>
        <stop busStop="155474" duration="30.00" until="2479.0"/>
        <stop busStop="155463" duration="30.00" until="2734.0"/>
        <stop busStop="155527" duration="30.00" until="3330.0"/>
    </route>
    <route id="51" edges="456 -918 -1437 -1298#2 -1298#1 -1298#0 -919#0 856#0 856#1 -1257#4 -1257#3 -1257#2 -1257#1 -1257#0 -1306#4 -1306#3 -1306#2 -1306#1 -1306#0 232#1 93 497#1 236 494#0 494#1 494#2 494#3 494#4 350#2 350#3 350#4 -349 -95#0 -520#2 -520#1 -520#0 -584#11 -584#10 -584#9 -584#8 -584#7 -584#6 -584#5 -584#4 -584#3 -584#2 -584#1 620#0 620#1 -693#5 -693#4 -693#3 -693#2 -693#1 -693#0 729#0 729#1 729#2 862#2 862#3 739 884#1 884#2 884#3 884#4 884#5 884#6 884#7 884#8 884#11 883#1 883#2 -740#2 -740#0 6#6 6#7 6#0 7 892 -153 -312 -882 1418#1 1418#2 1418#3 1418#5 1418#6 1418#7 1418#8 1418#9 936#0 936#1 936#2 936#3 936#4 936#5 936#6 936#7 294#2 294#3 294#0 294#1 -936#7 -936#6 -936#5 -936#4 -936#3 -936#2 -936#1 -936#0 1418#10 1418#11 1418#12 1418#13 1418#16 1418#17 1418#18 1418#19 1418#20 1418#21 1418#23 1418#24 1418#25 1418#26 1418#27 -186 -1276 -185 -1419#1 -1419#0" >
        <stop busStop="155580" duration="30.00" until="51.0"/>
        <stop busStop="155509" duration="30.00" until="125.0"/>
        <stop busStop="155513" duration="30.00" until="193.0"/>
        <stop busStop="155584" duration="30.00" until="281.0"/>
        <stop busStop="155585" duration="30.00" until="346.0"/>
        <stop busStop="155587" duration="30.00" until="428.0"/>
        <stop busStop="155590" duration="30.00" until="479.0"/>
        <stop busStop="155593" duration="30.00" until="580.0"/>
        <stop busStop="155595" duration="30.00" until="645.0"/>
        <stop busStop="155600" duration="30.00" until="749.0"/>
        <stop busStop="155598" duration="30.00" until="816.0"/>
        <stop busStop="155633" duration="30.00" until="896.0"/>
        <stop busStop="155632" duration="30.00" until="975.0"/>
        <stop busStop="155604" duration="30.00" until="1176.0"/>
        <stop busStop="155569" duration="30.00" until="1364.0"/>
        <stop busStop="155530" duration="30.00" until="1603.0"/>
        <stop busStop="155501" duration="30.00" until="1801.0"/>
        <stop busStop="155514" duration="30.00" until="1889.0"/>
        <stop busStop="155627" duration="30.00" until="2043.0"/>
        <stop busStop="155624" duration="30.00" until="2177.0"/>
        <stop busStop="155623" duration="30.00" until="2397.0"/>
        <stop busStop="155621" duration="30.00" until="2450.0"/>
        <stop busStop="155619" duration="30.00" until="2566.0"/>
        <stop busStop="155508" duration="30.00" until="2656.0"/>
        <stop busStop="155616" duration="30.00" until="2840.0"/>
        <stop busStop="155615" duration="30.00" until="2917.0"/>
        <stop busStop="155612" duration="30.00" until="2995.0"/>
        <stop busStop="155610" duration="30.00" until="3070.0"/>
    </route>
    <route id="50" edges="849 1419#1 185 1276 186 -1418#27 -1418#26 -1418#25 -1418#24 -1418#23 -1418#21 -1418#20 -1418#19 -1418#18 -1418#17 -1418#16 -1418#13 -1418#12 -1418#11 -1418#10 936#0 936#1 936#2 936#3 936#4 936#5 936#6 936#7 294#2 294#3 294#0 294#1 -936#7 -936#6 -936#5 -936#4 -936#3 -936#2 -936#1 -936#0 -1418#9 -1418#8 -1418#7 -1418#6 -1418#5 -1418#3 -1418#2 -1418#1 -1418#0 443#0 443#1 6#2 6#3 6#4 6#5 740#0 740#2 883#3 883#4 883#0 883#1 883#2 -740#2 -740#0 6#6 6#7 -8 204#4 194 198#3 198#0 154 317#0 317#1 71#0 -274#0 862#3 862#4 862#0 862#1 -729#2 -729#1 -729#0 693#0 693#1 693#2 693#3 693#4 693#5 -620#1 -620#0 584#1 584#2 584#3 584#4 584#5 584#6 584#7 584#8 584#9 584#10 584#11 584#12 520#1 520#2 520#4 95#1 350#1 -494#4 -494#3 -494#2 235 -494#0 488 90 1306#0 1306#1 1306#2 1306#3 1306#4 1257#0 1257#1 1257#2 1257#3 1257#4 856#2 856#3 919#0 919#1 1298#1 -1295#2 -1295#1 -1295#0 -1300#1 -1300#0 856#3 919#0 919#1 1298#1 1298#2 1437 -940#0 1294" >
        <stop busStop="155611" duration="30.00" until="47.0"/>
        <stop busStop="155613" duration="30.00" until="114.0"/>
        <stop busStop="155614" duration="30.00" until="186.0"/>
        <stop busStop="155602" duration="30.00" until="285.0"/>