<?xml version="1.0" encoding="UTF-8"?>

<!--
    Monaco SUMO Traffic (MoST) Scenario
    Copyright (C) 2018
    Lara CODECA

    This program is free software: you can redistribute it and/or modify
    it under the terms of the GNU General Public License as published by
    the Free Software Foundation, either version 3 of the License, or
    (at your option) any later version.

    This program is distributed in the hope that it will be useful,
    but WITHOUT ANY WARRANTY; without even the implied warranty of
    MERCHANTABILITY or FITNESS FOR A PARTICULAR PURPOSE.  See the
    GNU General Public License for more details.

    You should have received a copy of the GNU General Public License
    along with this program.  If not, see <http://www.gnu.org/licenses/>.
-->

<routes xmlns:xsi="http://www.w3.org/2001/XMLSchema-instance" xsi:noNamespaceSchemaLocation="http://sumo.dlr.de/xsd/routes_file.xsd">
    <vTypeDistribution id="highway">
        <vType vClass="passenger"  id="hw_passenger1"  personCapacity="4"      latAlignment="center" sigma="0.25" probability=".1" speedDev="0.1" guiShape="passenger"/>
        <vType vClass="passenger"  id="hw_passenger2a" personCapacity="4"      latAlignment="center" sigma="0.30" probability=".1" speedDev="0.1" guiShape="passenger/sedan"/>
        <vType vClass="passenger"  id="hw_passenger2b" personCapacity="4"      latAlignment="center" sigma="0.35" probability=".1" speedDev="0.1" guiShape="passenger/hatchback"/>
        <vType vClass="passenger"  id="hw_passenger3"  personCapacity="6"      latAlignment="center" sigma="0.40" probability=".1" speedDev="0.1" guiShape="passenger/wagon"/>
        <vType vClass="passenger"  id="hw_passenger4"  personCapacity="6"      latAlignment="center" sigma="0.50" probability=".1" speedDev="0.1" guiShape="passenger/van"/>
        <vType vClass="motorcycle" id="hw_motorcycle"                          latAlignment="compact" probability=".1"/>
        <vType vClass="delivery"   id="hw_delivery"    containerCapacity="15"  latAlignment="center" probability=".1"/>
        <vType vClass="truck"      id="hw_truck"       containerCapacity="5"   latAlignment="center" probability=".1"/>
        <vType vClass="trailer"    id="hw_trailer"     containerCapacity="5"   latAlignment="center" probability=".1"/>
        <vType vClass="coach"      id="hw_coach"       containerCapacity="50"  latAlignment="center" probability=".1"/>
    </vTypeDistribution>
    <flow id="France:Italy" from="152520#0" to="152268" type="highway" begin="18000.0" end="41400.0" period="30"/>
    <flow id="Italy:France" from="152267" to="152318#1" type="highway" begin="18000.0" end="41400.0" period="30"/>
</routes>
