<?xml version="1.0" encoding="UTF-8"?>

<!--
    Monaco SUMO Traffic (MoST) Scenario
    Copyright (C) 2018
    Lara CODECA

    This program is free software: you can redistribute it and/or modify
    it under the terms of the GNU General Public License as published by
    the Free Software Foundation, either version 3 of the License, or
    (at your option) any later version.

    This program is distributed in the hope that it will be useful,
    but WITHOUT ANY WARRANTY; without even the implied warranty of
    MERCHANTABILITY or FITNESS FOR A PARTICULAR PURPOSE.  See the
    GNU General Public License for more details.

    You should have received a copy of the GNU General Public License
    along with this program.  If not, see <http://www.gnu.org/licenses/>.
-->

<routes xmlns:xsi="http://www.w3.org/2001/XMLSchema-instance" xsi:noNamespaceSchemaLocation="http://sumo.dlr.de/xsd/routes_file.xsd"> 
    <vehicle id="special_1-3_69" type="special" depart="18032" departLane="best" arrivalPos="random">
        <route edges="-152301 -152877#3 -152877#2 -152877#1 -152877#0 152988 152987#3 152987#4 152978 -152899#1 -153481#0 152422 152273 152423#0 152423#1 152284 152534 -152333#7 -152333#6 -152333#5 -152333#4 -152333#3 -152333#2 -152333#1 -152333#0 153642 153639#1 153641#1 153007#0 153007#1 -153463#1 -153463#0 -153464#0 -152259 153465 -153465 152259 153464#0 153464#1"/>
    </vehicle>
    <vehicle id="special_3-1_84" type="special" depart="18100" departLane="best" arrivalPos="random">
        <route edges="153462 153464#1 153463#1 153010#0 153010#1 152238 153343 153646 152333#0 152333#1 152333#2 152333#3 152333#4 152333#5 152333#6 152333#7 152169 152171#0 152171#1 152402#1 152402#2 152905#0 152905#1 152993 152818#0 152818#1 152818#2 152818#3 152818#4 152818#5 152818#6 152818#7 152818#8 152818#9 152818#10 152818#11 152763 152233 152789#0 152823 152949#2 152237 152705#0 152705#1 152705#2 152705#3 152705#4"/>
    </vehicle>
    <vehicle id="special_1-2_68" type="special" depart="18113" departLane="best" arrivalPos="random">
        <route edges="152652#1 152652#2 152652#3 152652#4 152652#5 153403#0 153403#1 153403#2 153403#3 153401#4 153016#0 153016#1 152653#1 152653#2 152653#3 152653#4 152653#5 153411#0 153411#1 153411#2 152945 152688 152177#1 -152705#5 -152705#4 -152705#3 -152710#3 -152710#2 -152710#1 -152710#0 -153004 -153002 -153418#16 -153418#15 -153418#14 153420#0 153420#1 153336#0 153336#1 153336#2 153336#4 153336#5 153336#6 153336#7 153336#8 153336#9 153336#10 153336#11 153334#4 153334#5 153417#5 152254 153390#0 153390#1 152253 153388#0 -153391 152179#1 152179#2 152180 153389#0 153389#1 153389#2 152632#1 -153392#2 -153392#1 -153397#1 -153396#1 -153396#0 152740#0 152740#1 152740#2 -152738#0 153429#1 152628#0 152628#1 152628#2 152628#3 -153393#3 -152452 152452 153393#3"/>
    </vehicle>
    <vehicle id="special_3-1_72" type="special" depart="18132" departLane="best" arrivalPos="random">
        <route edges="152931 152260 153482#0 153482#1 152305 153347 152306 -153481#26 -153481#25 -153481#24 -153481#23 -153481#22 -153481#20 -153481#19 -153481#18 -153481#17 -153481#16 -153481#15 -153481#14 -153481#13 -153481#12 -153481#11 -153481#10 153013#0 153013#1 153013#2 153013#3 153013#4 153013#5 153013#6 153013#7 152405#2 152405#3 152903#0 152903#1 152903#2 -152874#4 -152874#3 -152874#2 -152874#1 -152874#0 153557#3 153557#0 152950#0 152950#1 152950#2 152818#11 152763 152233 152789#0 152823 152949#2 152237 152705#0 152705#1 152705#2 -152710#3 -152710#2 152711#0 152711#1 153559#0 153559#1"/>
    </vehicle>
    <vehicle id="special_1-3_67" type="special" depart="18144" departLane="best" arrivalPos="random">
        <route edges="152863 152777 152776 -152767 152780 152821#0 152821#1 152821#2 152821#3 152964#5 152964#1 152964#2 152964#3 -152825#2 -152825#1 -152825#0 152140#6 152140#7 -152142 152321#4 152321#1 152321#2 -152311 152284 152534 -152333#7 -152333#6 -152333#5 -152333#4 -152333#3 -152333#2 -152333#1 -152333#0 153642 152409 -153012#6 -153461#6 -153461#5 -153461#4 -153461#3 -153461#2 -153461#1 -153461#0 -153456#4 -153456#3 -153456#2 -153456#1 -153456#0 -153457#1 153462"/>
    </vehicle>
    <vehicle id="special_3-1_100" type="special" depart="18148" departLane="best" arrivalPos="random">
        <route edges="152417#3 152255 153400 152256 -153441 153441 -152256 -153400 -152255 -152417#3 -152417#2 -152417#1 -152417#0 152416 -152541 152932#4 152415 152535 152331#1 152291 152859 152213 152540 152397 153646 152333#0 152333#1 152333#2 152333#3 152333#4 152333#5 152333#6 152333#7 152169 152171#0 152171#1 152402#1 152402#2 152905#0 152905#1 152323 152406 -152963 152899#1 152899#2 152987#0 152987#1 152987#2 152987#3 -152904#1 -152904#0 152980#3 152980#4 152980#1 -153565 152979"/>
    </vehicle>
    <vehicle id="special_1-1_105" type="special" depart="18168" departLane="best" arrivalPos="random">
        <route edges="-153418#1 -153418#0 152653#0 152653#1 152653#2 152653#3 152653#4 152653#5 153411#0 153411#1 153411#2 152945 152688 152177#1 -152705#5 -152705#4 -152705#3 -152705#2 -152705#1 -152705#0 152232 152948#0 152797 152789#2 152170 152974#0 152974#1 152974#2 152974#3 152992#0 152992#1 152836#0 152836#1 152836#2 152836#3 152836#4 152836#5 152836#6 -152874#3 -152874#2 -152874#1"/>
    </vehicle>
    <vehicle id="special_1-3_106" type="special" depart="18171" departLane="best" arrivalPos="random">
        <route edges="152653#3 152653#4 152653#5 153411#0 153411#1 153411#2 152945 152688 152177#1 -152705#5 -152705#4 -152705#3 -152705#2 -152705#1 -152705#0 152232 152948#0 152948#1 -152818#11 -152818#10 -152818#9 -152818#8 -152818#7 -152818#6 -152818#5 -152818#4 -152818#3 -152818#2 -152818#1 -152818#0 152994 -152905#1 -152905#0 152402#3 152402#0 -152171#1 -152171#0 -152169 -152333#7 -152333#6 -152333#5 -152333#4 -152333#3 -152333#2 -152333#1 -152333#0 153642 152409 -153012#6 -153461#6 -153461#5 -153461#4 -153461#3 -153461#2 -153461#1 -153461#0 153456#5 153440#0 153440#1 153440#2 153440#3 152420#1 152417#0 152417#1 152417#2 153399#0 153399#1 153399#2 -152483 152483 -153399#2"/>
    </vehicle>
    <vehicle id="special_1-1_8" type="special" depart="18347" departLane="best" arrivalPos="random">
        <route edges="152818#6 152818#7 152818#8 152818#9 152818#10 152818#11 152763 152233 152789#0 152823 152949#2 152237 152705#0 152705#1 152705#2 152705#3 152705#4 152705#5 152707 152708 152671#1 152671#2 152671#3 152671#4 152671#5 152671#6 152671#7 152671#8 152671#9 152671#10 152671#11 152609#1 152609#2 152172 152226 152457 152458#1 -152586#4 -152586#3 -152586#2 -152586#1 -152586#0 152580 152222 152349#1 152224 -153485#7 -153485#6 153551 -153551 153485#6 153485#7"/>
    </vehicle>
    <vehicle id="special_1-3_90" type="special" depart="18456" departLane="best" arrivalPos="random">
        <route edges="152818#2 -152840#6 -152840#5 -152840#4 -152840#3 -152840#2 -152840#1 -152840#0 153449#5 152896#1 -152303 152895#0 152895#1 152402#0 -152171#1 -152171#0 -152169 -152333#7 -152333#6 -152333#5 -152333#4 -152333#3 -152333#2 -152333#1 -152333#0 153642 153639#1 153641#1 153007#0 153007#1 -153463#1 152907"/>
    </vehicle>
    <vehicle id="special_1-3_72" type="special" depart="18501" departLane="best" arrivalPos="random">
        <route edges="152674#0 152674#1 152674#2 152674#3 152674#4 152285 -152293 -152765 -152294 -152804 -152295 -152798 152296 152388 -152209 152465 152314 152315#2 -152312 152321#1 152321#2 -152311 152284 152534 -152333#7 -152333#6 -152333#5 -152333#4 -152333#3 -152333#2 -152333#1 -152333#0 153642 153639#1 153641#1 153007#0 153007#1 -153463#1 -153463#0 -153464#0 -152259 153465 -153465 152259 153464#0 153464#1"/>
    </vehicle>
    <vehicle id="special_3-1_97" type="special" depart="18609" departLane="best" arrivalPos="random">
        <route edges="153462 153464#1 153463#1 153010#0 153010#1 152238 153343 153646 152333#0 152333#1 152333#2 152333#3 152333#4 152333#5 152333#6 152333#7 152169 152171#0 152171#1 152402#1 152402#2 152402#3 -152895#1 -152895#0 152303 -152896#1 -152896#0 152840#0 152840#1 152840#2 152840#3 152840#4 -152834#2 -152834#1 -152834#0 -153446#1 -153446#0 -153450#1 -153450#0 153008#0 153008#1 153009 -152976#5 153444#0 153444#1 153444#2"/>
    </vehicle>
    <vehicle id="special_1-2_96" type="special" depart="18611" departLane="best" arrivalPos="random">
        <route edges="152539#4 152539#6 152658#4 152674#3 152681#0 152681#1 152681#2 152681#3 152681#4 152672#0 152672#1 152672#2 152718 152177#0 -152688 -152945 152683 152682 152546 152651#0 152651#1 152651#2 153401#0 153401#1 153401#2 153401#3 153401#4 153016#0 153016#1 152653#1 152653#2 152653#3"/>
    </vehicle>
    <vehicle id="special_2-1_125" type="special" depart="18706" departLane="best" arrivalPos="random">
        <route edges="153392#0 153392#1 153392#2 -152632#1 -152632#0 -153389#1 -153389#0 -152180 -152179#2 -152179#1 -152179#0 -153388#0 -152253 -153390#1 -153390#0 -152254 -153417#5 -153334#5 -153334#4 -153336#11 -153336#10 -153336#9 -153336#8 -153336#7 -153336#6 -153336#5 -153336#4 -153336#2 -153336#1 -153336#0 -153420#1 -153420#0 153418#14 153418#15 153418#16 153002 153004 152710#0 152710#1 152710#2 152710#3 152784 152771#2 -152550 152944#4 -152771#3"/>
    </vehicle>
    <vehicle id="special_3-1_56" type="special" depart="18717" departLane="best" arrivalPos="random">
        <route edges="-153462 153457#1 153457#2 153456#1 153456#2 153456#3 153456#4 153456#5 153456#6 153456#7 153438#1 152738#0 -152740#2 -152740#1 -152740#0 153396#0 153396#1 -153397#0 153332#0 153332#1 153332#2 153332#3 153332#4 153332#5 153332#6 153332#7 153332#8 153332#9 153332#11 153332#12 -153340#7 -153340#6 -153340#5 -153340#4 -153340#3 -153340#2 -153340#1 -153340#0 -153449#0 -153446#3 -153446#2 -153446#1 153448 152816#1 152816#2 152816#3 152816#4 152816#5 -152818#7 -152818#6 -152818#5 -152818#4 -152818#3"/>
    </vehicle>
    <vehicle id="special_2-1_94" type="special" depart="18737" departLane="best" arrivalPos="random">
        <route edges="-152485 -153417#0 -152257 153428#0 153428#1 153428#2 153415#0 153415#1 153415#2 153415#3 153415#4 153415#5 153415#6 153415#7 153415#8 153415#9 -153336#2 -153336#1 -153336#0 153420#2"/>
    </vehicle>
    <vehicle id="special_1-3_11" type="special" depart="18740" departLane="best" arrivalPos="random">
        <route edges="152705#4 152495#0 152495#1 152495#2 152495#3 -152716 152715#1 152715#2 152715#3 -152705#3 -152705#2 -152705#1 -152705#0 152232 152948#0 152948#1 -152818#11 -152818#10 -152818#9 -152818#8 -152818#7 -152818#6 -152818#5 -152818#4 -152818#3 -152818#2 -152818#1 -152818#0 152994 -152905#1 -152905#0 152402#3 152402#0 -152171#1 -152171#0 -152169 -152333#7 -152333#6 -152333#5 -152333#4 -152333#3 -152333#2 -152333#1 -152333#0 153642 153639#1 153641#1 153007#0 153007#1 -153463#1 152907"/>
    </vehicle>
    <vehicle id="special_2-1_8" type="special" depart="18750" departLane="best" arrivalPos="random">
        <route edges="-153334#3 -153334#2 -153334#1 -153334#0 152937#3 -153404#1 -153404#0 152653#0 152653#1 152653#2 152653#3 152653#4 152653#5 153411#0 153411#1 153411#2 152945 152688 152177#1 -152705#5 -152705#4 -152705#3 -152705#2 -152705#1 -152705#0 152232 152948#0 152797 152789#2 152170 152974#0 152974#1 152974#2 152974#3 -152799#1 152812 152964#3 152964#4 -152821#3 -152821#2 -152821#1 -152821#0 -152780 152864 152866 -152893 152889 152888#0 152888#1 152885 152886 152947 152884#1 152884#2 152881 152873 152867 152872"/>
    </vehicle>
    <vehicle id="special_3-1_29" type="special" depart="18792" departLane="best" arrivalPos="random">
        <route edges="-152931 -152307 -153483 153483 152307 152931 152260 153482#0 153482#1 152305 153347 152306 -153481#26 -153481#25 -153481#24 -153481#23 -153481#22 -153481#20 -153481#19 -153481#18 -153481#17 -153481#16 -153481#15 -153481#14 -153481#13 -153481#12 -153481#11 -153481#10 -153481#9 -153481#8 -153481#7 -153481#6 -153481#5 -153481#3 -153481#2 -153481#1 -153481#0 152542#0 152542#1 152140#2 152140#3 152140#4 152140#5 152825#0 152825#1 152825#2 152964#4 -152821#3 -152821#2 -152821#1 -152821#0 -152780 152864 152866 -152893 152870 152868"/>
    </vehicle>
    <vehicle id="special_1-2_27" type="special" depart="18825" departLane="best" arrivalPos="random">
        <route edges="-152401#0 152462#3 152462#0 -152971#1 -152971#0 -152890#0 152980#4 152980#1 -153565 152902#0 152902#1 152902#2 -152302 152861 152140#3 152140#4 152140#5 152140#6 152140#7 -152142 152321#4 152321#1 152321#2 -152311 152284 152534 -152333#7 -152333#6 -152333#5 -152333#4 -152333#3 -153484#11 -153484#9 -153484#8 -153484#7"/>
    </vehicle>
    <vehicle id="special_2-1_106" type="special" depart="18829" departLane="best" arrivalPos="random">
        <route edges="152816#5 152818#8 152818#9 152818#10 152818#11 152763 152233 152789#0 152789#1 152789#2 152170 152974#0 152974#1 152974#2 152974#3 -152799#1 152812 152964#3 152964#4 152964#5 152783 152822#0 152822#1 152822#2 152822#3 152391#0 152391#1 152781 152385 152775"/>
    </vehicle>
    <vehicle id="special_2-1_79" type="special" depart="18865" departLane="best" arrivalPos="random">
        <route edges="-153450#1 -153450#0 153008#0 153008#1 153009 152817 152805 152786 153557#2 152874#0 152874#1 152874#2 152874#3 -152836#6 -152836#5 -152836#4 -152836#3 -152836#2 -152836#1 -152836#0 -152992#1 -152992#0 -152974#3 -152974#2 -152974#1 -152974#0 152795"/>
    </vehicle>
    <vehicle id="special_1-1_129" type="special" depart="19001" departLane="best" arrivalPos="random">
        <route edges="152461#0 152461#1 152461#2 152168#1 152539#0 152539#1 152539#2 152539#3 152539#4 152539#6 152658#4 152674#3 152681#0 152681#1 152681#2 152681#3 152681#4 152681#5 152654#0 152676#1 152676#2 -152384 -152720 -152771#3 -152771#2 -152771#1 -152771#0 -152705#0 152232 152948#0 152797 152789#2 152170 152974#0 152974#1 152974#2 152974#3 152992#0 152992#1 152992#2 -152992#2 -152992#1 -152992#0 -152974#3 -152974#2 -152974#1 -152974#0 152795"/>
    </vehicle>
    <vehicle id="special_1-3_109" type="special" depart="19021" departLane="best" arrivalPos="random">
        <route edges="152357#0 152357#1 -152656#0 -152671#10 -152671#9 -152671#8 -152671#7 -152671#6 -152671#5 -152671#4 -152672#2 -152672#1 -152672#0 152681#5 152654#0 152676#1 152676#2 -152779#0 152814#0 152814#1 152814#2 152943#2 152943#3 152824 152965#1 152965#2 152965#3 152965#4 152308 152315#0 152315#1 152315#2 -152312 152321#1 152321#2 -152311 152284 152534 -152333#7 -152333#6 -152333#5 -152333#4 -152333#3 -152333#2 -152333#1 -152333#0 153642 153639#1 153641#1 153007#0 153007#1 -153463#1 152907"/>
    </vehicle>
    <vehicle id="special_1-1_128" type="special" depart="19024" departLane="best" arrivalPos="random">
        <route edges="-152166#1 -152166#0 152877#3 152301 -152650 -152401#1 -152401#0 152462#3 -152455 152878#1 152878#2 153643 152300#0 152300#0-AddedOffRampEdge 152300#1 152972 152820#2 152820#3 152835#0 152835#1 152809#1 152809#2 -152770#1 -152770#0"/>
    </vehicle>
    <vehicle id="special_1-2_4" type="special" depart="19028" departLane="best" arrivalPos="random">
        <route edges="152406 152422 152273 152423#0 152423#1 152311 152321#3 152321#4 152312 152315#3 -152308 -152835#2 -152835#1 -152389#0 152815 152820#5 152943#0 152943#1 -152814#2 -152814#1 -152814#0 152779#0 152779#2 152779#3 152779#4 152779#5 -152706#1 -152706#0 152671#1 152671#2 152671#3 152671#4 152671#5 152671#6 152671#7 152671#8 152671#9 152671#10 152671#11 152609#1 152609#2 152172 152226 152457 152458#1 -152586#4 -152586#3 -152586#2 -152594#2 -152594#1 -152594#0 153496#0 153496#1 153496#2 -152316"/>
    </vehicle>
    <vehicle id="special_2-1_52" type="special" depart="19050" departLane="best" arrivalPos="random">
        <route edges="152724#0 153047#0 152258#1 -153445#6 -153445#5 -153445#4 -153445#3 -153445#2 -153445#1 -153445#0 153449#2 153449#3 153449#4 153449#5 152896#1 -152303 152895#0 152895#1 152402#0 152402#1 152402#2 152905#0 152905#1 152323 152406 -152963 152899#1 152899#2 152987#0 152987#1 152898#0 152898#1 152877#1 152877#2 152877#3 152301 -152650 152401#2 152401#3 152862 -152401#4 -152401#3"/>
    </vehicle>
    <vehicle id="special_3-1_110" type="special" depart="19050" departLane="best" arrivalPos="random">
        <route edges="152907 153482#1 152305 153347 152306 -153481#26 -153481#25 -153481#24 -153481#23 -153481#22 -153481#20 -153481#19 -153481#18 -153481#17 -153481#16 -153481#15 -153481#14 -153481#13 -153481#12 -153481#11 -153481#10 -153481#9 -153481#8 -153481#7 -153481#6 -153481#5 -153481#3 -153481#2 -153481#1 -153481#0 152422 152273 152423#0 152423#1 152311 152321#3 152321#4 152312 152315#3 152315#0 152274 152427 152209 -152388 -152296 152798 152295 152804 152294 152765 152293 152290 152658#1 152658#2 152538#0 152538#2 152538#3 152538#4 152538#5 152538#6 152538#7 152350#0"/>
    </vehicle>
    <vehicle id="special_3-1_99" type="special" depart="19058" departLane="best" arrivalPos="random">
        <route edges="153464#1 153463#1 153010#0 153010#1 152238 153343 153646 152333#0 152333#1 152333#2 152333#3 152333#4 152333#5 152333#6 152333#7 152169 -153011#3 -153011#2 -153011#1 -153011#0 152903#2 -152874#4 -152874#3 -152874#2 -152874#1 -152874#0 153557#3 153557#0 153557#1 153557#2 152874#0 152874#1 152874#2"/>
    </vehicle>
    <vehicle id="special_2-1_2" type="special" depart="19083" departLane="best" arrivalPos="random">
        <route edges="153417#2 153417#3 153417#4 -153334#5 -153334#4 -153336#11 -153336#10 -153336#9 -153336#8 -153336#7 -153336#6 -153336#5 -153336#4 -153336#2 -153336#1 -153336#0 -153420#1 -153420#0 153418#14 153418#15 153418#16 153002 153004 152710#0 152710#1 152710#2 152710#3 152705#3 152705#4 152705#5 152707 152708 152661#0 152661#1 152661#2 -152681#5 -152681#4 -152681#3 -152681#2 -152681#1 -152681#0 152658#0 152658#1 152658#2 152538#0 152538#2 -152369 152539#4"/>
    </vehicle>
    <vehicle id="special_1-2_139" type="special" depart="19110" departLane="best" arrivalPos="random">
        <route edges="152539#6 152658#4 152674#3 152681#0 152681#1 152681#2 152681#3 152681#4 152681#5 152654#0 152676#1 152676#2 -152384 -152720 -152771#3 -152771#2 -152784 -152710#3 -152710#2 -152710#1 -152710#0 -153004 -153002 -153418#16 -153418#15 -153418#14 153420#0 153420#1 153336#0 153336#1 153336#2 153336#4 153001#0 153001#2 153001#3 153001#4 153001#5 153001#6 153001#7 153001#8 -153404#0 153418#0 153418#1 153418#3 153418#4 153418#5 153418#6 153418#7 153418#8 153418#9 153418#10 153418#11"/>
    </vehicle>
    <vehicle id="special_1-1_49" type="special" depart="19123" departLane="best" arrivalPos="random">
        <route edges="152771#0 152771#1 -152784 -152705#2 -152705#1 -152705#0 152232 152948#0 152948#1 -152818#11 -152818#10 -152818#9 -152818#8 -152818#7 -152818#6 -152818#5 -152818#4 -152818#3 -152818#2 -152818#1 -152900 152818#2 152818#3 152818#4"/>
    </vehicle>
    <vehicle id="special_1-1_85" type="special" depart="19127" departLane="best" arrivalPos="random">
        <route edges="152538#7 -152168#1 -152168#0 153552 152148 -152175 152348#0 152348#1 -152583#1 -152583#0 -152223 -152591#3 -152591#2 -152591#1 -152591#0 152227 152173#0 152173#1 -152606 152172 152226 152457 152458#1 152458#2 152619#0 152619#1 152619#2 -152322 -152970#1 152459 152460#0 152460#1"/>
    </vehicle>
    <vehicle id="special_1-1_103" type="special" depart="19200" departLane="best" arrivalPos="random">
        <route edges="152836#4 152836#5 152836#6 -152874#3 -152874#2 -152874#1 -152874#0 153557#3 153557#0 153557#1 153557#2 152874#0 152874#1 152874#2 152874#3 -152836#6 -152836#5 -152836#4 -152836#3 -152836#2 -152836#1 -152796#1 -152796#0 -152827#3 -152827#2 -152827#1"/>
    </vehicle>
    <vehicle id="special_1-2_123" type="special" depart="19208" departLane="best" arrivalPos="random">
        <route edges="152950#2 152818#11 152763 152233 152789#0 152823 152949#2 152237 152705#0 152705#1 152705#2 -152710#3 -152710#2 152711#0 152711#1 153409#1 153409#2 153409#3 153409#4 153409#5 153409#6 153409#7 153409#8 153008#0 153008#1 153009 -152976#5"/>
    </vehicle>
    <vehicle id="special_1-2_118" type="special" depart="19258" departLane="best" arrivalPos="random">
        <route edges="152461#0 152461#1 152461#2 152168#1 152539#0 152539#1 152539#2 152539#3 152539#4 152539#6 152658#4 152674#3 152674#4 152285 -152293 -152765 -152294 -152804 -152295 -152798 152296 152388 -152209 152465 152314 152315#2 -152312 152321#1 152321#2 152321#3 152142 152140#0 152141 152973 -152273 -152422 -152963 153481#1 153481#2 153481#3 153481#5 153481#6 153481#7 153481#8 153481#9 153013#0 152404 -152404 -153013#0 -153481#9 -153481#8"/>
    </vehicle>
    <vehicle id="special_2-1_90" type="special" depart="19375" departLane="best" arrivalPos="random">
        <route edges="-152986 152855#2 -152935#1 153012#0 153012#2 153012#3 153012#4 153012#5 153012#6 152410 153641#1 153007#0 152842 153010#1 152238 153343 153646 152333#0 152333#1 152333#2 152333#3 152333#4 152333#5 152333#6 152333#7 152169 152171#0 152171#1 152402#1 152402#2 152905#0 152905#1 152993 152818#0 152818#1 152818#2 152818#3 152818#4 152818#5 152818#6 152818#7 152818#8 152818#9 152818#10 152818#11 152763 152233 152789#0 152823 152949#2 152237 152705#0 152705#1 152705#2 152705#3 152705#4 152705#5 152707 152709#0 152709#1 152178 152682 152546 152651#0 152651#1 152651#2 153410#0 153410#1 153410#2 153410#3"/>
    </vehicle>
    <vehicle id="special_2-1_146" type="special" depart="19415" departLane="best" arrivalPos="random">
        <route edges="-152486 -152373#0 -153445#5 -153445#4 -153445#3 -153445#2 -153445#1 -153446#3 -153446#2 -153446#1 153448 152816#1 152816#2 152816#3 152816#4 152816#5 152818#8 152818#9 152818#10 152818#11 152763 152233 152789#0 152789#1 152789#2 152170 152974#0 152974#1 152974#2 152974#3 -152799#1 152812 152964#3 152964#4 -152821#3 -152821#2 -152821#1 -152821#0 -152780 152864 152866 -152893 152870 152868"/>
    </vehicle>
    <vehicle id="special_3-1_147" type="special" depart="19483" departLane="best" arrivalPos="random">
        <route edges="153400 152256 -153441 153441 -152256 -153400 -152255 -152417#3 -152417#2 -152417#1 -152417#0 152416 -152541 152932#4 152415 152535 152331#1 152291 152859 152213 152540 152397 153646 152333#0 152333#1 152333#2 152333#3 152333#4 152333#5 152333#6 152333#7 152169 -153011#3 -153011#2 -153011#1 -153011#0 -152903#1 -152903#0 152405#0 152405#1 152405#2 152942#0 152942#1 152942#2 152423#1 152311 152321#3 152142 152140#0 152140#1 152140#2 152140#3 152140#4 152140#5 152825#0 152825#1 152825#2 152964#4 -152821#3 -152821#2 -152821#1 -152821#0 -152780 152767 -152776 -152777 152778 152803 152807 -152810 -152792"/>
    </vehicle>
    <vehicle id="special_1-2_37" type="special" depart="19504" departLane="best" arrivalPos="random">
        <route edges="152538#6 152538#7 152539#0 152539#1 152539#2 152539#3 152539#4 152539#6 152658#4 152674#3 152674#4 152285 -152293 -152765 -152294 -152804 -152295 -152798 152296 152388 -152209 152465 152314 152315#2 -152312 152321#1 152321#2 -152311 152284 152534 -152333#7 -152333#6 -152333#5 -152333#4 -152333#3 -152333#2 -152333#1 -152333#0 153642 152409 -153012#6 -153461#6 -153461#5 -153461#4 -153461#3 -153461#2 -153461#1 -153461#0 153456#5 153440#0 153440#1 153440#2 153440#3 152420#1 152417#0 152417#1 152417#2 153399#0"/>
    </vehicle>
    <vehicle id="special_1-2_29" type="special" depart="19595" departLane="best" arrivalPos="random">
        <route edges="152293 152290 152658#1 152658#2 152658#3 152658#4 152674#3 152674#4 152285 -152293 -152765 -152294 -152804 -152295 -152798 152296 152388 -152209 152465 152314 152315#2 -152312 152321#1 152321#2 -152311 152284 152534 -152333#7 -152333#6 -152333#5 -152333#4 -152333#3 -152333#2 -152333#1 -152333#0 -152413#3 -153459#1 -153459#0 153459#0 153459#1 152413#3"/>
    </vehicle>
    <vehicle id="special_2-1_98" type="special" depart="19603" departLane="best" arrivalPos="random">
        <route edges="-152962 -152286 152558 153661 152286 -152559 -153362#2 -153359#2 -153359#1 -153359#0 -153364#1 -153364#0 -152562#6 -152562#5 -152562#4 -152562#3 -152562#2 -152562#1 -152562#0 153377#1 153485#0 153485#1 153485#2 153485#3 153485#4 153485#5 153485#6 153485#7 152589#1 152353 152586#0 152586#1 152586#2 152586#3 152586#4 152458#2 152458#3 152458#4 -152457 -152226 -152172 -152609#2 -152609#1 -152609#0 -152671#10 -152671#9 -152671#8 -152671#7 -152671#6 -152671#5 -152671#4 -152672#2 -152672#1 -152672#0 -152681#4 152680#0 152680#1 152680#2"/>
    </vehicle>
    <vehicle id="special_1-2_32" type="special" depart="19638" departLane="best" arrivalPos="random">
        <route edges="-152296 152798 152295 152804 152294 152765 152293 152289 152673#0 152673#1 152366#2 -152611 -152173#1 -152173#0 -152227 152591#0 152591#1 152617 -152617 -152591#1 -152591#0 152227 152173#0 152173#1 -152606 152614 152621 152610#2 152610#3 152610#4 152610#5"/>
    </vehicle>
    <vehicle id="special_1-1_76" type="special" depart="19669" departLane="best" arrivalPos="random">
        <route edges="-152944#1 -152944#0 -152814#0 152779#0 -152384 -152720 -152771#3 -152771#2 -152784 -152705#2 -152705#1 152771#0"/>
    </vehicle>
    <vehicle id="special_1-3_43" type="special" depart="19713" departLane="best" arrivalPos="random">
        <route edges="-153446#2 153451 152834#1 152834#2 -152840#4 -152840#3 -152840#2 -152840#1 -152840#0 153449#5 152896#1 -152303 152895#0 152895#1 152402#0 -152171#1 -152171#0 -152169 -152333#7 -152333#6 -152333#5 -152333#4 -152333#3 -152333#2 -152333#1 -152333#0 153642 153639#1 153641#1 153007#0 153007#1 -153463#1 -153463#0 -153464#0 -152259 153465 -153465 152259 153464#0 153464#1"/>
    </vehicle>
    <vehicle id="special_3-1_32" type="special" depart="19722" departLane="best" arrivalPos="random">
        <route edges="153010#0 153010#1 152238 153343 153646 152333#0 152333#1 152333#2 152333#3 152333#4 152333#5 152333#6 152333#7 152169 152171#0 152171#1 152402#1 152402#2 152905#0 152905#1 152323 152406"/>
    </vehicle>
    <vehicle id="special_1-1_131" type="special" depart="19843" departLane="best" arrivalPos="random">
        <route edges="-152877#1 -152877#0 152988 152987#3 -152904#1 -152891#2 -152891#1 -152891#0 152902#0 -153564#2"/>
    </vehicle>
    <vehicle id="special_1-1_146" type="special" depart="19897" departLane="best" arrivalPos="random">
        <route edges="-153011#0 152903#2 -152874#4 -152874#3 -152874#2 -152874#1 -152874#0 153557#3 153557#0 152950#0 152950#1 152950#2 152818#11 152763 152233 152789#0 152823 152949#2 152237 152705#0 152705#1 152705#2 152705#3 152705#4 152705#5 152707 152708 152661#0 152661#1 152661#2 -152681#5 -152681#4 152680#0 152680#1 152680#2"/>
    </vehicle>
    <vehicle id="special_1-2_46" type="special" depart="19901" departLane="best" arrivalPos="random">
        <route edges="152293 152290 152658#1 152658#2 152658#3 152658#4 152674#3 152674#4 152285 -152293 -152765 -152294 -152804 -152295 -152798 152296 152388 -152209 152465 152314 152315#2 -152312 152321#1 152321#2 152321#3 152142 152140#0 152141 152973 -152273 -152422 -152963 153481#1 153481#2 153481#3 153481#5 153481#6 153481#7 153481#8 153481#9 153481#10 153481#11 153481#12 153481#13 153481#14 153481#15 153481#16 153481#17 153481#18 153481#19 153481#20 152923#0 -152926 -153015#0 -153475 -153477#3 -153477#2 -153477#1 -153477#0 -153478#3 -153478#2 -153478#1"/>
    </vehicle>
    <vehicle id="special_3-1_7" type="special" depart="19917" departLane="best" arrivalPos="random">
        <route edges="153464#1 153463#1 153010#0 153010#1 152238 153343 153646 152333#0 152333#1 152333#2 152333#3 152333#4 152333#5 152333#6 152333#7 152169 152171#0 152171#1 152402#1 152402#2 152905#0 152905#1 152993 152818#0 152818#1 152818#2 152818#3 152818#4 152818#5 152818#6 152818#7 152818#8 152818#9 152818#10 152818#11 152763 152233 152789#0 152823 152949#2 152237 152705#0 152705#1 152705#2 152705#3 152705#4 152705#5 152707 152708 152671#1 152671#2 152671#3 152671#4 152671#5 152671#6 152671#7 152671#8 152671#9 152671#10 152671#11 152609#1 152609#2 152172 152226 152457 152458#1 -152586#4 -152586#3 -152586#2 -152594#2 -152594#1 -152594#0 -153385#4 -153385#3 -153385#2 -153385#1"/>
    </vehicle>
    <vehicle id="special_3-1_123" type="special" depart="19918" departLane="best" arrivalPos="random">
        <route edges="152307 152931 152260 153482#0 153482#1 152305 153347 152306 -153481#26 -153481#25 -153481#24 -153481#23 -153481#22 -153481#20 -153481#19 -153481#18 -153481#17 -153481#16 -153481#15 -153481#14 -153481#13 -153481#12 -153481#11 -153481#10 -153481#9 -153481#8 -153481#7 -153481#6 -153481#5 -153481#3 -153481#2 -153481#1 -153481#0 152422 152273 152423#0 152423#1 152311 152321#3 152321#4 152312 152315#3 152315#0 152274 152427 152209 -152388 -152296 152798 152295 152804 152294 152765 152293 152290 152658#1 152658#2 152538#0 152538#2 152538#3 152538#4 152538#5 152538#6 152538#7 -152168#1 -152461#2 152461#0"/>
    </vehicle>
    <vehicle id="special_1-2_81" type="special" depart="19964" departLane="best" arrivalPos="random">
        <route edges="153444#2 152470#1 152948#0 152948#1 -152818#11 -152818#10 -152818#9 -152818#8 -152816#5 -152816#4 -152816#3 -152816#2 -152816#1 -152816#0 153446#1 153446#2 153446#3"/>
    </vehicle>
    <vehicle id="special_2-1_56" type="special" depart="19991" departLane="best" arrivalPos="random">
        <route edges="-152686#2 -152686#1 -153420#0 153418#14 153418#15 153418#16 153002 153004 152710#0 152710#1 152710#2 152710#3 -152705#2 -152705#1 -152705#0 152232 152948#0 152797 152789#2 152170 152974#0 152974#1 152974#2 152974#3 -152799#1 152828#0 152828#1 152140#7 152140#0 152140#1 152140#2 -152861 152302 -152902#2 -152902#1 153564#3 -152882 152887#1 152887#2 152878#5 152878#0 152878#1 152879#0"/>
    </vehicle>
    <vehicle id="special_1-1_45" type="special" depart="20032" departLane="best" arrivalPos="random">
        <route edges="152357#0 152357#1 -152656#0 152671#11 152609#1"/>
    </vehicle>
    <vehicle id="special_1-3_64" type="special" depart="20094" departLane="best" arrivalPos="random">