<?xml version="1.0" encoding="UTF-8"?>

<!--
    Monaco SUMO Traffic (MoST) Scenario
    Copyright (C) 2018
    Lara CODECA

    This program is free software: you can redistribute it and/or modify
    it under the terms of the GNU General Public License as published by
    the Free Software Foundation, either version 3 of the License, or
    (at your option) any later version.

    This program is distributed in the hope that it will be useful,
    but WITHOUT ANY WARRANTY; without even the implied warranty of
    MERCHANTABILITY or FITNESS FOR A PARTICULAR PURPOSE.  See the
    GNU General Public License for more details.

    You should have received a copy of the GNU General Public License
    along with this program.  If not, see <http://www.gnu.org/licenses/>.
-->

<routes xmlns:xsi="http://www.w3.org/2001/XMLSchema-instance" xsi:noNamespaceSchemaLocation="http://sumo.dlr.de/xsd/routes_file.xsd">
    <vehicle id="2wheeler_2_1765" type="moped" depart="18034.00" departLane="best">
        <route edges="1293#2 -1296#1 -1296#0 -132 -925#1 -925#0 862#0 -479#6 -479#5 -479#3 -479#2 -479#1 -479#0 1311#1 1419#0 1419#1 1419#2 1419#3 1419#4 1419#5 1419#6 1419#7 508#1 254 505#0 505#1 505#2 505#3 505#4 362#2 540#0 540#1 540#2 -223 -895#1 363 -364#1"/>
    </vehicle>
    <vehicle id="2wheeler_1_756" type="motorcycle" depart="18043.00" departLane="best">
        <route edges="-595#0 -119 -189 190 602 580#1 580#2 580#3 580#4 596#3 1492 604#0 604#1 604#2 604#3 604#4 604#5 575#0 599#1 599#2 702#2 -591 -643 -694#3 -694#2 -694#1 -694#0 -628#0 122 873#0 873#1 686 123 712#0 746 874#2"/>
    </vehicle>
    <vehicle id="2wheeler_1_5" type="motorcycle" depart="18058.00" departLane="best">
        <route edges="-694#2 -694#1 -694#0 -628#0 122 873#0 873#1 -741#11 -875#2 -875#1 -875#0 1495#1 1495#2 798#0 798#1 798#2 798#3 -759#6 -759#5 -759#4 -759#3 -759#2 -759#1 -759#0 -918#1 -918#0 -899#5 -899#4 -899#3"/>
    </vehicle>
    <vehicle id="2wheeler_2_1190" type="motorcycle" depart="18069.00" departLane="best">
        <route edges="-1387 1423#0 1423#1 892 -1384#1 -1384#0 935#1 936 740 728 709 1495#2 1495#3 754#0 754#1 899#1 1491#0 1491#1 1491#2 1491#3 752#0 752#1 890#11 889#1 889#2 -748#2 -748#0 15#6 15#7 15#0 15#1 15#2 -784 202 -826#2 -826#1 -826#0 1503 906#2 906#3 814#0 896#0 896#1 369#2 305#0 305#1 571 -201 -801#3 -801#2"/>
    </vehicle>
    <vehicle id="2wheeler_3_1881" type="moped" depart="18092.00" departLane="best">
        <route edges="1281#0 1281#1 1281#2 1281#3 -1286#1 -1286#0 -142 -1291 141 1289 1290 140 -1301#1 1299#0 1299#1 100 1258#0 1258#1 1258#2 1258#3 1258#4 1311#1 1419#0 1419#1 1419#2 1419#3 1419#4 1419#5 1419#6 1419#7 108 -1317#2 -1317#1 -1317#0 110 -501#1 249#0 249#1 -502#1 -502#0 -112 -510#3 -510#2 -510#1 -510#0 117 532#0 532#1 268#3 268#0 268#1 -595#1 -595#0"/>
    </vehicle>
    <vehicle id="2wheeler_2_1762" type="motorcycle" depart="18108.00" departLane="best">
        <route edges="1306#0 1306#1 1258#2 1258#3 1258#4 1311#1 1419#0 1419#1 1419#2 1419#3 1419#4 1419#5 1419#6 1419#7 508#1 254 505#0 505#1 505#2 505#3 505#4 362#2 362#3 362#4 -361 -116 -530#3 -530#2 -530#1 -530#0 -593#10 -593#9 -593#8 -593#7 -593#6 -593#5 -593#4 641#1 641#2 641#3 -628#5 -628#4 -628#3 -628#2 -628#1 -628#0 122 873#0 873#1 -741#11 -741#10 -741#9 -741#8 -741#7 -741#6 -741#5 -741#4 -741#3 -741#2 -741#1 -741#0 920 919"/>
    </vehicle>
    <vehicle id="2wheeler_3_2027" type="moped" depart="18149.00" departLane="best">
        <route edges="-1280#0 922#1 467 -924 -1433 -1296#2 -1293#2 -1293#1 -1293#0 -1298#1 -1298#0 862#3 862#0 862#1 -1255#4 -1255#3 -1255#2 -1255#1 -1255#0 -1304#4 -1304#3 -1304#2 -478#1 -478#0 104 1498 -379#0 900#1 500#2 500#3 500#4 23 1314#1 1314#2 109 366#0 366#1 366#2 371#1 371#2 371#3 371#4 371#5"/>
    </vehicle>
    <vehicle id="2wheeler_1_126" type="motorcycle" depart="18156.00" departLane="best">
        <route edges="122 873#0 873#1 686 123 712#0 746 874#2 127 628#0 694#0 694#1 694#2 694#3 643 591 -702#2 -599#2 -599#1 -575#0 -604#5 594#0 594#1 -590#6 -590#5 -590#4 -590#3 -590#2 -590#1 -590#0 268#1 268#2 -532#1 -532#0 -117 510#0 510#1 510#2 506#0 -498 -502#0 -112 -510#3 -510#2 -510#1 -510#0 117"/>
    </vehicle>
    <vehicle id="2wheeler_2_1607" type="motorcycle" depart="18162.00" departLane="best">
        <route edges="-1299#0 -1301#0 -1257#2 -1294#4 -239 -93 -238 -1294#2 1294#0 1294#1 1294#2 238 93 239 1294#4 1257#2 1301#0 1299#0 1299#1 100 1258#0 1258#1 1258#2 1258#3 1258#4 1311#1 1419#0 1419#1 1419#2 1419#3 1419#4 1419#5 1419#6 1419#7 508#1 254 505#0 505#1 505#2 505#3 505#4 362#2 362#3 362#4 -361 -116 -530#3 -530#2 -530#1 -530#0 -593#10 -593#9 -593#8 -593#7 -593#6 -593#5 -593#4 -594#2 -594#1 -594#0 604#5 575#0 599#1 878#0 878#1 615#1 615#2"/>
    </vehicle>
    <vehicle id="2wheeler_2_1730" type="motorcycle" depart="18181.00" departLane="best">
        <route edges="-1313#13 -1313#12 -1313#11 -1313#10 -1313#9 -1313#8 -860 1313#7 1313#8 1313#9 1313#10 1313#11 1313#12 1313#13 1313#14 861#1 861#2 861#3 -1338#1 -1338#0 1352#0 1352#1 1352#3 1352#4 1352#5 1352#6 1352#7 1352#8 1597#0 1597#1"/>
    </vehicle>
    <vehicle id="2wheeler_3_342" type="motorcycle" depart="18191.00" departLane="best">
        <route edges="138 459 922#1 467 -924 -1433 -1296#2 -1293#2 -1293#1 -1293#0 -1298#1 -1298#0 862#3 862#0 -479#6 -479#5 -479#3 -479#2 -479#1 -479#0 1311#1 1419#0 1419#1 1419#2 1419#3 1419#4 1419#5 1419#6 1419#7 508#1 254 505#0 505#1 505#2 505#3 505#4 362#2 362#3 362#4 -361 -116 -530#3 -530#2 -530#1 -530#0 -593#10 -593#9 -593#8 -593#7 -593#6 -593#5 -593#4 -593#3 -593#2 -593#1 629#0 629#1 -702#5 -702#4 -702#3 -702#2 -702#0 737#0 737#1 737#2 868#2 868#3 868#4 868#0 714#0 863 -716#4 -716#3 -716#2 -716#1 330#0 330#1 290#0 290#1"/>
    </vehicle>
    <vehicle id="2wheeler_2_160" type="motorcycle" depart="18193.00" departLane="best">
        <route edges="494#3 494#4 -1500 567#3 -494#3 -908 -549#1 -549#0 -1363#1 661#0 -663#2 -663#1 -663#0 1330#0 1330#1 1505#0 1505#1 1259#0 1259#1 1259#2 1259#3 1259#4 1259#5 1259#6 1259#7 1259#8 1259#9 1259#10 1259#11 1259#12 -1267#7 -1267#6 -1267#5 -1267#4 -1267#3 -1267#2 -1267#1 -1267#0 -1383#0 -1380#3 -1380#2 -1380#1 1382 739#1 739#2 739#3 739#4 739#5 741#8"/>
    </vehicle>
    <vehicle id="2wheeler_2_885" type="motorcycle" depart="18220.00" departLane="best">
        <route edges="1384#1 1380#0 1380#1 1380#2 1380#3 -1379#0 1383#2 1383#3 1383#4 763#0 763#1"/>
    </vehicle>
    <vehicle id="2wheeler_2_1537" type="motorcycle" depart="18246.00" departLane="best">
        <route edges="-938#2 -938#1 -938#0 827#2 204 -798#5 -798#4 -798#3 -798#2 -798#1 -798#0 1495#3 875#0 875#1 875#2 741#11 686 123 712#0 746 874#2 127 628#0 628#1 628#2 628#3 628#4 628#5 630 631 593#1 593#2 593#3 593#4 593#5 593#6 593#7 593#8 593#9 593#10 578#0 578#1 -259#0 -573#6 -573#5"/>
    </vehicle>
    <vehicle id="2wheeler_3_689" type="moped" depart="18248.00" departLane="best">
        <route edges="-1275 -1280#0 922#1 467 -924 -1433 -1296#2 -1293#2 -1293#1 -1293#0 -1298#1 -1298#0 862#3 862#0 -479#6 -479#5 -479#3 -479#2 -479#1 -479#0 1311#1 1419#0 1419#1 1419#2 1419#3 1419#4 1419#5 1419#6 1419#7 508#1 254 505#0 505#1 505#2 505#3 505#4 362#2 362#3 531#0 -535#1 542"/>
    </vehicle>
    <vehicle id="2wheeler_2_884" type="motorcycle" depart="18308.00" departLane="best">
        <route edges="996 995#1 1366#4 1366#5 1366#6 1366#7 1366#8 1366#9 1366#10 1366#11 -836#5 -836#3 -836#2 -836#1 -836#0 1372#1 661#0 -663#2 -663#1 -663#0 1330#0 1330#1 1505#0 1505#1 1505#2 1331 1326#1 1326#2 -553#1 -553#0 -1323#5 -1323#4 -1323#3 -1323#2 -1323#1 -1323#0 148 1325 1322#1 1322#2 1322#3 1322#4 -145 1308#0 1308#1 144 486 210#0 210#1 -1311#4 -1311#3 -1311#2 1419#0 1419#1 1419#2 1419#3 1419#4 1419#5 1419#6 1419#7 508#1 254 505#0 505#1 505#2 505#3 505#4"/>
    </vehicle>
    <vehicle id="2wheeler_GW2_595" type="motorcycle" depart="18311.00" departLane="best">
        <route edges="1604 186 -476 -1296#2 -1293#2 -1293#1 -1293#0 -1298#1 -1298#0 862#3 862#0 -479#6 -479#5 -479#3 -479#2 -479#1 -479#0 1311#1 1419#0 1419#1 1419#2 1419#3 1419#4 1419#5 1419#6 1419#7 508#1 254 505#0 505#1 505#2 505#3 505#4 362#2 362#3 362#4 -361 -116 -530#3 -530#2 -530#1 -530#0 -593#10 -593#9 -579 -600"/>
        <stop parkingArea="152525" duration="43200.00"/>
    </vehicle>
    <vehicle id="2wheeler_3_1736" type="motorcycle" depart="18335.00" departLane="best">
        <route edges="459 922#1 467 -924 -1433 -1296#2 -1293#2 -1293#1 -1293#0 -1298#1 -1298#0 862#3 862#0 862#1 -1255#4 -1255#3 -1255#2 -1255#1 -1255#0 -1302#3 481 -504#4 -504#3 -504#2 -504#1 -504#0 249#1 -502#1 -502#0 -112 -510#3 -510#2 -510#1 -510#0 117 532#0 532#1 268#3 268#0 268#1 -595#1 596#0 596#1 596#2 596#3 1492 604#0"/>
    </vehicle>
    <vehicle id="2wheeler_2_565" type="moped" depart="18415.00" departLane="best">
        <route edges="1351#2 1351#3 1351#4 -1261#5 -1261#4 -1263#11 -1263#10 -1263#9 -1263#8 -1263#7 -1263#6 -1263#5 -1263#4 -1263#2 -1263#1 -1263#0 -1354#1 -1354#0 1352#14 1352#15 1352#16 929 931 633#0 633#1 633#2 633#3 -628#2 -628#1 -628#0 122 873#0 720 712#2 899#0 899#1 1491#0 1491#1 1491#2 1491#3 752#0 752#1 890#11 889#1 889#2 889#3 -744#3 -744#2 -744#1 -744#0 -703 690 -699 -700 701 -687 -690 703 744#0 744#1"/>
    </vehicle>
    <vehicle id="2wheeler_1_144" type="moped" depart="18422.00" departLane="best">
        <route edges="454#1 15#2 15#3 15#4 15#5 15#6 15#7 -17 222#4 213 216#3 216#0 174 331 92 -292 -196 721 195 727 194 688 193 190 602 580#1 580#2 580#3 580#4 596#3 596#4 185 -193 -688 -194 -727 -195 -721 196 292 -92"/>
    </vehicle>
    <vehicle id="2wheeler_3_1604" type="motorcycle" depart="18439.00" departLane="best">
        <route edges="138 459 922#1 467 -924 -1433 -1296#2 -1293#2 -1293#1 -1293#0 -1298#1 -1298#0 862#3 862#0 -479#6 -479#5 -479#3 -479#2 -479#1 -479#0 1311#1 1419#0 1419#1 1419#2 1419#3 1419#4 1419#5 1419#6 1419#7 508#1 254 505#0 505#1 505#2 505#3 505#4 362#2 362#3 362#4 -361 -116 -530#3 -530#2 -530#1 -530#0 -593#10 -593#9 -593#8 -593#7 -593#6 -593#5 -593#4 -593#3 -593#2 -593#1 629#0 629#1 -702#5 -702#4 -702#3 -702#2 -702#0 737#0 737#1 737#2 868#2 868#3 747 890#1 890#2 890#3 890#4 890#5 890#6 890#7 890#8 890#11 889#1 889#2 889#3 -744#3 -744#2 -744#1 -744#0 -703 690 -699 -700 701 726 730 -733 -715 -796"/>
    </vehicle>
    <vehicle id="2wheeler_3_1150" type="motorcycle" depart="18462.00" departLane="best">
        <route edges="-135 -1279 -137 -1277 -136 -1282 -139 -1280#1 -1280#0 922#1 467 -924 -1433 -1296#2 -1293#2 -1293#1 -1293#0 -1298#1 -1298#0 862#3 862#0 -479#6 -479#5 -479#3 -479#2 -479#1 -479#0 1311#1 1419#0 1419#1 1419#2 1419#3 1419#4 1419#5 1419#6 1419#7 508#1 254 505#0 505#1 505#2 505#3 505#4 362#2 362#3 362#4 -361 -116 -530#3 -530#2 -530#1 -530#0 -593#10 -593#9 -593#8 -593#7 -593#6 -593#5 -593#4 -593#3 -593#2 -593#1 629#0 629#1 -702#5 -702#4 -702#3 -702#2 -702#0 737#0 737#1 737#2 868#2 868#3 747 890#1 890#2 890#3 890#4 208 216#0 216#1 216#2 -213 222#1 221 -826#2 -826#1 -826#0 1503 906#2 906#3 906#4 906#1 -1503 826#0 826#1 826#2"/>
    </vehicle>
    <vehicle id="2wheeler_3_2013" type="motorcycle" depart="18484.00" departLane="best">
        <route edges="-1285 138 459 922#1 467 -924 -1433 -1296#2 -1293#2 -1293#1 -1293#0 -1298#1 -1298#0 862#3 862#0 -479#6 -479#5 -479#3 -479#2 -479#1 -479#0 1311#1 1419#0 1419#1 1419#2 1419#3 1419#4 1419#5 1419#6 1419#7 508#1 254 505#0 505#1 505#2 505#3 505#4 362#2 362#3 362#4 -361 -116 -530#3 -530#2 -530#1 -530#0 -593#10 -593#9 -593#8 -593#7 -593#6 -593#5 -593#4 641#1 641#2 641#3 -628#5 -628#4 -628#3 -633#3 -633#2 -633#1 -633#0 -931 -929 -1352#16 -1352#15 -1352#14 -1352#13 -1352#12 -1352#11 -1352#10 -1352#9 -1352#8 -1352#7 -1352#6"/>
    </vehicle>
    <vehicle id="2wheeler_1_966" type="motorcycle" depart="18491.00" departLane="best">
        <route edges="734 875#2 741#11 686 123 712#0 746 874#2 127 628#0 628#1 628#2 628#3 628#4 628#5 630 631 593#1 593#2 593#3 593#4 593#5 593#6 593#7 593#8 593#9 593#10 578#0 578#1"/>
        <stop parkingArea="152480" duration="43200.00"/>
    </vehicle>
    <vehicle id="2wheeler_2_432" type="moped" depart="18521.00" departLane="best">
        <route edges="-915#1 -915#0 -1415#5 -1415#3 -1415#2 -1415#1 823#1 823#2 -219 -904 913#0 913#1 -914"/>
    </vehicle>
    <vehicle id="2wheeler_2_31" type="motorcycle" depart="18530.00" departLane="best">
        <route edges="-840#3 -840#2 -840#1 -840#0 941#0 941#1 840#0 840#1 840#2 840#3 840#4 840#5 840#6 840#7 840#8 913#1 913#3 -828#1 -815#2 -815#1 -815#0 826#0 826#1 826#2 -202 784 15#3 15#4 15#5 748#0 748#2 889#3 -744#3 -744#2 -744#1 -744#0 -703 690"/>
    </vehicle>
    <vehicle id="2wheeler_1_288" type="motorcycle" depart="18566.00" departLane="best">
        <route edges="-730 -726 -701 700 699 -690 703 744#0 744#1 744#2 744#3 889#4 889#0 889#1 889#2 -748#2 -748#0 15#6 15#7 -17 222#4 222#1 222#2 -212 184 446 234#8 234#9 234#10 306#1 306#2 306#3 -819#1 -819#0 203 -820#1 -820#0 -1383#4 -1383#3 -1383#2 1267#0 1267#1 1267#2 1267#3 1267#4 1267#5 1267#6 1267#7 -1259#12 -1259#11 -1259#10 -1259#9 -969 1259#11 1259#12 -1267#7 -1267#6 -1267#5 -1267#4 -1267#3 -1267#2"/>
    </vehicle>
    <vehicle id="2wheeler_2_118" type="motorcycle" depart="18569.00" departLane="best">
        <route edges="104 1498 -379#0 900#1 500#2 500#3 500#4 23 -1314#0 249#0 249#1 -502#1 -502#0 -112 -510#3 -510#2 -510#1 -510#0 117 532#0 532#1 268#3 268#0 590#0 590#1 590#2 590#3 590#4 590#5 590#6 594#2 641#1 641#2 641#3 -628#5 -628#4 -628#3 -633#3 -633#2 -633#1 -633#0 -931 -929 -1352#16 -1352#15 -1352#14 1354#0 1354#1 1263#0 1263#1 1263#2 1263#4 1263#5 1263#6 1263#7 1263#8 1263#9 1263#10 1263#11 -1261#3 -1261#2 -1261#1"/>
    </vehicle>
    <vehicle id="2wheeler_1_751" type="moped" depart="18578.00" departLane="best">
        <route edges="753 197 745#2 745#3 745#4 743#0 743#1 743#2 743#3 758#0 293#1 293#2 -711#1 -711#0 -693#1 -693#0 890#7 890#8 -752#1 -752#0 -1491#3 -723#1 -723#0 718#1 899#1 1491#0 1491#1 1491#2 1491#3"/>
    </vehicle>
    <vehicle id="2wheeler_3_383" type="motorcycle" depart="18595.00" departLane="best">
        <route edges="-1280#0 922#1 467 -924 -1433 -1296#2 -1293#2 -1293#1 -1293#0 -1298#1 -1298#0 862#3 862#0 -479#6 -479#5 -479#3 -479#2 -479#1 -479#0 1311#1 1419#0 1419#1 1419#2 1419#3 1419#4 1419#5 1419#6 1419#7 508#1 254 505#0 505#1 505#2 505#3 505#4 362#2 362#3 362#4 -361 -116 -530#3 -530#2 -530#1 -530#0 -593#10 -593#9 -593#8 -593#7 -593#6 -593#5 -593#4 -593#3 -593#2 -593#1 629#0 629#1 -869#5 643"/>
    </vehicle>
    <vehicle id="2wheeler_3_1684" type="motorcycle" depart="18598.00" departLane="best">
        <route edges="1584#1 894 301 1589 234#0 234#1 234#2 234#3 234#4 234#5 234#6 234#7 234#8 -938#3 -938#2 -938#1 -938#0 -827#1 -827#0 867#0 867#1 867#2 327#1 212 222#3 17 15#0 15#1 15#2 15#3 15#4 15#5 748#0 753 197"/>
    </vehicle>
    <vehicle id="2wheeler_2_446" type="motorcycle" depart="18602.00" departLane="best">
        <route edges="1345#1 1345#2 606 641#2 641#3 630 631 629#0 629#1 -702#5 -702#4 -702#3 -702#2 -702#0 737#0 737#1 737#2 868#2 868#3 868#4 868#0 714#0 863 -716#4 -716#3"/>
    </vehicle>
    <vehicle id="2wheeler_1_455" type="motorcycle" depart="18629.00" departLane="best">
        <route edges="798#5 -204 -827#2 -827#1 -827#0 867#0 867#1 867#2"/>
    </vehicle>
    <vehicle id="2wheeler_1_545" type="motorcycle" depart="18659.00" departLane="best">
        <route edges="593#11 530#1 530#2 530#3 116 361 362#1 362#2 362#3 362#4 -361 -116 -530#3 -530#2 -530#1 -530#0 -593#10 -593#9 -593#8 -593#7 -593#6 -593#5 -593#4 641#1 641#2 641#3 -628#5 -628#4 -628#3 -628#2 -628#1 -628#0 122 873#0 720 712#2 899#0 -718#1 723#0 723#1 -1491#2 -1491#1"/>
    </vehicle>
    <vehicle id="2wheeler_3_1380" type="motorcycle" depart="18675.00" departLane="best">
        <route edges="1285 467 -924 -1433 -1296#2 -1293#2 -1293#1 -1293#0 -1298#1 -1298#0 862#3 862#0 -479#6 -479#5 -479#3 -479#2 -479#1 -479#0 1311#1 1419#0 1419#1 1419#2 1419#3 1419#4 1419#5 1419#6 1419#7 508#1 254 505#0 505#1 505#2 505#3 505#4 362#2 362#3 362#4 -361 -116 -530#3 -530#2 -530#1 -530#0 -593#10 -593#9 -593#8 -593#7 -593#6 -593#5 -593#4 -593#3 -593#2 -593#1 629#0 629#1 -702#5 -702#4 -702#3 -702#2 -702#0 737#0 737#1 737#2 868#2 868#3 747 890#1 890#2 890#3 890#4 890#5 890#6 890#7 890#8 890#11 889#1 889#2 889#3 -744#3 -744#2 -744#1 -744#0 -703 690 -699 -700 701 -687 -690 703 744#0 744#1 744#2"/>
    </vehicle>
    <vehicle id="2wheeler_3_1999" type="motorcycle" depart="18682.00" departLane="best">
        <route edges="-1432 -1275 -1280#0 922#1 467 -924 -1433 -1296#2 -1293#2 -1293#1 -1293#0 -1298#1 -1298#0 862#3 862#0 -479#6 -479#5 -479#3 -479#2 -479#1 -479#0 1311#1 1419#0 1419#1 1419#2 1419#3 1419#4 1419#5 1419#6 1419#7 508#1 254 505#0 505#1 505#2 505#3 505#4 362#2 362#3 362#4 -361 -116 -530#3 -530#2 -530#1 -530#0 -593#10 -593#9 -593#8 -593#7 -593#6 -593#5 -593#4 -593#3 -593#2 -593#1 629#0 629#1 -702#5 -702#4 -702#3 -702#2 -702#0 737#0 737#1 737#2 868#2 868#3 747 890#1 890#2 890#3 890#4 890#5 890#6 890#7 890#8 890#11 889#1 889#2 889#3 -744#3 -744#2 -744#1 -744#0 -703 788 790 789 -817 813 812 809"/>
    </vehicle>
    <vehicle id="2wheeler_3_2148" type="motorcycle" depart="18686.00" departLane="best">
        <route edges="-1275 -1280#0 922#1 467 -924 -1433 -1296#2 -1293#2 -1293#1 -1293#0 -1298#1 -1298#0 862#3 862#0 -479#6 -479#5 -479#3 -479#2 -479#1 -479#0 1311#1 1419#0 1419#1 1419#2 1419#3 1419#4 1419#5 1419#6 1419#7 508#1 254 505#0 505#1 505#2 505#3 505#4 362#2 362#3 362#4 -361 -116 -530#3 -530#2 -530#1 -530#0 -593#10 -593#9 -593#8 -593#7 -593#6 -593#5 -593#4 641#1 641#2 641#3 -628#5 -628#4 -628#3 -628#2 -628#1 -628#0 122 873#0 873#1 -741#11 -741#10 -741#9 -741#8 -741#7 -741#6 -741#5 -741#4 -741#3 -741#2 -741#1 -741#0 920 919 741#0"/>
    </vehicle>
    <vehicle id="2wheeler_3_940" type="moped" depart="18699.00" departLane="best">
        <route edges="-492 1327#1 1327#2 1327#3 -549#3 -549#2 -549#1 -549#0 -1363#1 661#0 -663#2 -663#1 -663#0 1330#0 1330#1 1505#0 1505#1 1505#2 1331 1326#1 1326#2 -553#1 -553#0 -1323#5 -1323#4 -1323#3 -1323#2 -1323#1 -1323#0 148 1325 -1322#0 -149 -1324#1 -1324#0 -150 -1351#5 -1261#5 -1261#4 -1263#11 -1263#10 -1263#9 -1263#8 -1263#7 -1263#6 -1263#5 -1263#4 -1263#2 -1263#1 -1263#0 -1354#1 -1354#0 1352#14 1352#15 1352#16 929 931 633#0 633#1 633#2 633#3 707 694#2 -466 -869#2 -869#1 -869#0 121 731 737#1 737#2 868#2 868#3 747 890#1 732#0"/>
    </vehicle>
    <vehicle id="2wheeler_2_338" type="motorcycle" depart="18716.00" departLane="best">
        <route edges="-860 1313#7 1313#8 1313#9 1313#10 1313#11 1313#12 1313#13 1313#14 861#1 861#2 861#3 -1338#1 -1338#0 1352#0 1352#1 1352#3 1352#4 1352#5 1352#6 1352#7 1352#8 1352#9 1352#10 1352#11 1352#12 1352#13 1352#14 1352#15 1352#16 929 -1497#3 -1499 -1352#16 -1352#15 -1352#14 -1352#13 -1352#12 -1352#11 -1352#10 -1352#9 -1352#8 -1352#7 -1352#6 -1352#5"/>
    </vehicle>
    <vehicle id="2wheeler_2_801" type="motorcycle" depart="18745.00" departLane="best">
        <route edges="1415#18 1415#19 1415#20 1415#21 847#0 -850 942#1 -1415#23 -1415#21 -1415#20 -1415#19 -1415#18 -1415#17 -1415#16 -1415#13 -1415#12 -1415#11 -1415#10 -1415#9 -1415#8 -1415#7 -1415#6 -1415#5 -1415#3 -1415#2 -1415#1 -1415#0 326 173 327#0 327#1 212 222#3 222#4 213 216#3 216#0 174 331 92 -292 -196 721 195 727 194 688 193 189 119 595#0 595#1 268#2 -532#1 -532#0 -117 510#0 510#1 510#2 510#3 113 502#0 502#1 252 501#1 -110 1317#0 507"/>
    </vehicle>
    <vehicle id="2wheeler_GW1_179" type="motorcycle" depart="18753.00" departLane="best">
        <route edges="431 159 1574 160 1572 175 433 94 430#0 442 480 426#3 426#4 1320#0 1320#1 1320#2 1320#3 1320#4 1320#5 1320#6 1320#7 -1322#1 -1322#0 -149 -1324#1 -1324#0 -150 -1351#5 -1261#5 -1261#4 -1263#11 -1263#10 -1263#9 -1263#8 -1263#7 -1263#6 -1263#5 -1263#4 -1263#2 -1263#1 -1263#0 -1354#1 -1354#0 1352#14 1352#15 1352#16 929 931 633#0 633#1 633#2 633#3 628#3 628#4 628#5 630 631 583#0 583#1 583#2 -604#5"/>
    </vehicle>
    <vehicle id="2wheeler_1_49" type="moped" depart="18765.00" departLane="best">
        <route edges="712#0 712#1"/>
    </vehicle>
    <vehicle id="2wheeler_GW1_312" type="motorcycle" depart="18770.00" departLane="best">
        <route edges="431 159 1574 160 1572 175 433 94 430#0 442 480 426#3 426#4 1320#0 1320#1 1320#2 1320#3 1320#4 1320#5 1320#6 1320#7 1322#2 1322#3 1322#4 -145 1308#0 1308#1 144 486 210#0 210#1 -1311#4 -1311#3 -1311#2 1419#0 1419#1 1419#2 1419#3 1419#4 1419#5 1419#6 1419#7 108 -1317#2 -1317#1 -1317#0 110 -501#1 249#0 249#1 -502#1 498 506#1"/>
    </vehicle>
    <vehicle id="2wheeler_1_606" type="motorcycle" depart="18780.00" departLane="best">
        <route edges="-754#0 1495#1 1495#2 1495#3 754#0 754#1 899#1 1491#0 1491#1 1491#2 1491#3 752#0 752#1 890#11 889#1 889#2 -748#2 -748#0 15#6 15#7 15#0 16 898 -173 -326 10 329 823#2 -219 -904 913#0 913#1 -914 -814#1"/>
    </vehicle>
    <vehicle id="2wheeler_2_649" type="motorcycle" depart="18800.00" departLane="best">
        <route edges="1424#3 1424#4 426#2 426#3 426#4 1320#0 1320#1 1320#2 1320#3 1320#4 1320#5 1320#6 1320#7 -1322#1 -1322#0 -149 -1324#1 -1324#0 -150 -1351#5 -1261#5 -1261#4 -1263#11 -1263#10 -1263#9 -1263#8 -1263#7 -1263#6 -1263#5 -1263#4 -1263#2 -1263#1 -1263#0 -1354#1 -1354#0 1352#14 1352#15 1352#16 929 931 633#0 633#1 633#2 633#3 -628#2 -628#1 -628#0 122 873#0 720 712#2 899#0 899#1 1491#0 1491#1 1491#2 1491#3 752#0 752#1 890#11 889#1 889#2 889#3 889#4 706 745#0 745#1 745#2 745#3 745#4 296 382 199 1588 1587 802#4 802#5 802#0 802#1 803#0 803#1 803#2 188"/>
    </vehicle>
    <vehicle id="2wheeler_1_125" type="motorcycle" depart="18803.00" departLane="best">
        <route edges="-292 -196 721 195 727 194 688 193 190 602 580#1 580#2 580#3 580#4 596#3 596#4 185 -193 -688 -194 -727 -195 -721 196 292 -92 373 215 216#2 -213 222#1 221 -826#2 -826#1 -826#0 1503 906#2 906#3 814#0 896#0 896#1 -359"/>
    </vehicle>
    <vehicle id="2wheeler_1_435" type="motorcycle" depart="18805.00" departLane="best">
        <route edges="-826#1 -826#0 1503 906#2 906#3 906#4 906#1 -1503 826#0 826#1 826#2 -202 784 15#3 15#4 15#5 15#6 15#7 -17 222#4 213 216#3 -208 890#5 890#6 890#7 890#8 -752#1 -752#0 -1491#3 -1491#2 -1491#1 -1491#0 -899#1 -899#0 874#0 874#1 874#2 127 122"/>
    </vehicle>
    <vehicle id="2wheeler_2_633" type="motorcycle" depart="18824.00" departLane="best">
        <route edges="1401#0 1401#1 1401#2 1401#3 1401#4 1401#5 -1415#11 -1415#10 -1415#9 -1415#8 -1415#7 -1415#6 -1415#5 -1415#3 -1415#2 -1415#1 -1415#0 326 173 327#0 327#1 212 222#3 222#4 213 216#3 -208 890#5 890#6 890#7 890#8 -752#1 -752#0 -1491#3 -1491#2 -1491#1 -1491#0 -899#1 -899#0 874#0 874#1 874#2 127 628#0 628#1 628#2 -633#3 -633#2 -633#1 -633#0 -931 -929 -1352#16 -1352#15 -1352#14 1354#0 609#1"/>
    </vehicle>
    <vehicle id="2wheeler_1_1032" type="motorcycle" depart="18842.00" departLane="best">
        <route edges="510#0 510#1 510#2 506#0 -498 -502#0 -112 -510#3 -510#2 -510#1 -510#0 117 532#0 532#1 268#3 268#0 590#0 590#1 590#2 590#3 590#4 590#5 590#6 -594#1 -594#0 604#5 575#0 599#1 599#2 702#2 -591 -643 -694#3 -694#2 -694#1 -694#0 -628#0 122 873#0 873#1 -741#11 -875#2 -875#1 -875#0 1495#1 1495#2 798#0 798#1 798#2 798#3 -759#6 -759#5 -759#4"/>
    </vehicle>
    <vehicle id="2wheeler_3_2289" type="motorcycle" depart="18875.00" departLane="best">
        <route edges="1391#2 1390#1 1390#2 1390#3 1390#4 1390#5 1390#6 1390#7 1372#1 661#0 -663#2 -663#1 -663#0 1330#0 1330#1 1505#0 1505#1 1505#2 1331 1326#1 1326#2 -553#1 -553#0 -1323#5 -1323#4 -1323#3 -1323#2 -1323#1 -1323#0 148 1325 -1322#0 -149 -1324#1 -1324#0 -150 -1351#5 -1261#5 -1261#4 -1261#3 -1261#2 -1261#1 -1261#0 861#3 -1338#1 -1338#0 574#0 574#1 574#2 574#3 574#4 574#5 1345#0 1345#1 1345#2 606 605 458 572#0 572#1 572#2 1335#0 1335#1 1335#2 1335#3 1335#4 1596"/>
    </vehicle>
    <vehicle id="2wheeler_2_599" type="moped" depart="18885.00" departLane="best">
        <route edges="1415#5 1415#6 1415#7 1415#8 1415#9 1415#10 1415#11 -1401#5 -1401#4 -1401#3 -1401#2 -1401#1 -1401#0 -1415#13 -1415#12 -1415#11 -1415#10 -1415#9 -1415#8 -1415#7 -1415#6 -1415#5 -1415#3 -1415#2 -1415#1 823#1 823#2 -219 -904 913#0 913#1 913#3 -828#1 -828#0 906#3 814#0 896#0 896#1 369#2 305#0"/>
    </vehicle>
    <vehicle id="2wheeler_GW1_109" type="motorcycle" depart="18885.00" departLane="best">
        <route edges="431 159 1574 160 1572 175 433 94 430#0 442 480 426#3 426#4 1320#0 1320#1 1320#2 1320#3 1320#4 1320#5 1320#6 1320#7 -1322#1 -1322#0 -149 -1324#1 -1324#0 -150 -1351#5 -1261#5 -1261#4 -1263#11 -1263#10 -1263#9 -1263#8 -1263#7 -1263#6 -1263#5 -1263#4 -1263#2 -1263#1 -1263#0 -1354#1 -1354#0 1352#14 1352#15 1352#16 929 931 633#0 633#1 633#2 633#3 707 694#2 -466 -869#2 -869#1 -869#0 121 731 737#1 737#2 868#2 868#3 747 890#1 732#0 732#1 732#2 711#0 -725 -710#0 -732#1"/>
    </vehicle>
    <vehicle id="2wheeler_1_632" type="motorcycle" depart="18902.00" departLane="best">
        <route edges="874#0 874#1 874#2 127 122 873#0 720 712#2 899#0 899#1 1491#0 1491#1 1491#2 1491#3 752#0 752#1 890#11 889#1 889#2 889#3 -744#3 -744#2 -744#1 -744#0 -703 788 790 789 -817 794 419 865 799"/>
        <stop parkingArea="152532" duration="43200.00"/>
    </vehicle>
    <vehicle id="2wheeler_2_1240" type="motorcycle" depart="18904.00" departLane="best">
        <route edges="-1261#1 -1261#0 861#3 -1338#1 -1338#0 574#0 574#1 574#2 574#3 574#4 574#5 1345#0 1345#1 1345#2 606 641#2 641#3 630 631 629#0 629#1 -702#5 -702#4 -702#3 -702#2 -702#0 737#0 737#1 737#2 868#2 868#3 747 890#1 890#2 890#3 890#4 208 216#0 174 331 92 -292 -196 721 195 727"/>
    </vehicle>
    <vehicle id="2wheeler_2_1781" type="motorcycle" depart="18945.00" departLane="best">
        <route edges="836#8 317#1 317#2 317#3 234#0 234#1 234#2 234#3 234#4 234#5 234#6 234#7 234#8 -938#3 -938#2 -938#1 -938#0 -827#1 -827#0 867#0 867#1 867#2 327#1 212"/>
    </vehicle>
    <vehicle id="2wheeler_3_2331" type="moped" depart="18946.00" departLane="best">
        <route edges="-1284 -459 -98 1285 467 -924 -1433 -1296#2 -1293#2 -1293#1 -1293#0 -1298#1 -1298#0 862#3 862#0 -479#6 -479#5 -479#3 -479#2 -479#1 -479#0 1311#1 1419#0 1419#1 1419#2 1419#3 1419#4 1419#5 1419#6 1419#7 508#1 254 505#0 505#1 505#2 505#3 505#4 362#2 362#3 362#4 -361 -116 -530#3 -530#2 -530#1 -530#0 -593#10 -593#9 -579 -600 -585"/>
    </vehicle>
    <vehicle id="2wheeler_3_1313" type="motorcycle" depart="18954.00" departLane="best">
        <route edges="-1275 -1280#0 922#1 467 -924 -1433 -1296#2 -1293#2 -1293#1 -1293#0 -1298#1 -1298#0 862#3 862#0 -479#6 -479#5 -479#3 -479#2 -479#1 -479#0 1311#1 1419#0 1419#1 1419#2 1419#3 1419#4 1419#5 1419#6 1419#7 508#1 254 505#0 505#1 505#2 505#3 505#4 362#2 362#3 531#0 -535#1 542 531#2 531#3 531#4 531#5 531#6 531#7 531#8 531#9 427#1 -573#6 -573#5 -573#4 -573#3 -573#2 -573#1 -573#0 572#1 572#2 1335#0 1335#1 1335#2"/>
    </vehicle>
    <vehicle id="2wheeler_2_74" type="motorcycle" depart="19007.00" departLane="best">
        <route edges="-1395#0 1390#5 1374#0 1374#1 -678#2 284#0 284#1 -1374#0 -1390#5 1395#0 1395#1 1395#2 1395#3 1395#4 1395#5 1395#6 939#6 314 1584#1 894 301 1589 234#0 234#1 234#2 234#3 234#4 234#5 234#6 234#7 234#8 -938#3 -938#2 -938#1 -938#0 827#2 204 -798#5 -798#4 -798#3"/>
    </vehicle>
    <vehicle id="2wheeler_1_456" type="motorcycle" depart="19021.00" departLane="best">
        <route edges="822#1 -801#0 914 913#3 -828#1 -815#2 -815#1 -815#0 826#0 826#1 826#2 -202 784 15#3 15#4 15#5 15#6 15#7 -17 222#4 213 216#3 216#0 174 331"/>
    </vehicle>
    <vehicle id="2wheeler_1_558" type="motorcycle" depart="19031.00" departLane="best">
        <route edges="-116 -530#3 -530#2 -530#1 -530#0 -593#10 -593#9 -593#8 -593#7 -593#6 -593#5 -593#4 641#1 641#2 641#3 -628#5 -628#4 -628#3 -628#2 -628#1 -628#0 122 873#0 873#1 686"/>
    </vehicle>
    <vehicle id="2wheeler_GW2_10" type="moped" depart="19035.00" departLane="best">
        <route edges="1604 186 -476 -1296#2 -1293#2 -1293#1 -1293#0 -1298#1 -1298#0 862#3 862#0 -479#6 -479#5 -479#3 -479#2 -479#1 -479#0 1311#1 1419#0 1419#1 1419#2 1419#3 1419#4 1419#5 1419#6 1419#7 508#1 254 505#0 505#1 505#2 505#3 505#4 362#2 362#3 362#4 -361 -116 -530#3 -530#2 -530#1 -530#0 -593#10 -593#9 -593#8 -593#7 -593#6 -593#5 -593#4 -593#3 -593#2 -593#1 629#0 629#1 -702#5 -702#4 -702#3 -702#2 -702#0 737#0 737#1 737#2 868#2 868#3 747 890#1 890#2 890#3 890#4 890#5 890#6 890#7 890#8 890#11"/>
    </vehicle>
    <vehicle id="2wheeler_2_1442" type="motorcycle" depart="19076.00" departLane="best">
        <route edges="1419#7 508#1 254 505#0 505#1 505#2 505#3 505#4 362#2 362#3 362#4 -361 -116 -530#3 -530#2 -530#1 -530#0 -593#10 -593#9 -593#8 -593#7 -593#6 -593#5 -593#4 -593#3 -593#2 -593#1 629#0 629#1 -702#5 -702#4 -702#3 -702#2 -702#0 737#0 737#1 737#2 868#2 868#3 747 890#1 890#2 890#3 890#4 208 216#0 216#1 216#2 -213 222#1 221 -826#2 -826#1 -826#0 905 815#1 815#2 828#1 913#4 913#0 913#1 -914 801#0 801#1 801#2 304#0 304#1 -304#4 302 304#3 304#4"/>
    </vehicle>
    <vehicle id="2wheeler_3_2324" type="moped" depart="19095.00" departLane="best">
        <route edges="856#1 856#2 856#3 453 352#1 -1374#3 -1374#2 -1374#1 -1374#0 1390#6 1390#7 1372#1 661#0 -663#2 -663#1 -663#0 1330#0 1330#1 1505#0 1505#1 1505#2 1331 1326#1 1326#2 -553#1 -553#0 -1323#5 -1323#4 -1323#3 -1323#2 -1323#1 -1323#0 148 1325 -1322#0 -149 -1324#1 -1324#0 -150 -1351#5 -1261#5 -1261#4 -1263#11 -1263#10 -1263#9 -1263#8 -1263#7 -1263#6 -1263#5 -1263#4 -1263#2 -1263#1 -1263#0 -1354#1 -1354#0 1352#14 1352#15 1352#16 929 931 633#0 633#1 633#2 633#3 628#3 628#4 628#5 630 631 583#0 583#1 583#2 -604#5 -604#4 -604#3 -604#2 -604#1 -604#0 597 580#1 580#2 580#3 581 595#0 596#0"/>
    </vehicle>
    <vehicle id="2wheeler_3_1584" type="motorcycle" depart="19100.00" departLane="best">