<!-- 
    Monaco SUMO Traffic (MoST) Scenario
    Copyright (C) 2018 
    Lara CODECA

    This program is free software: you can redistribute it and/or modify
    it under the terms of the GNU General Public License as published by
    the Free Software Foundation, either version 3 of the License, or
    (at your option) any later version.

    This program is distributed in the hope that it will be useful,
    but WITHOUT ANY WARRANTY; without even the implied warranty of
    MERCHANTABILITY or FITNESS FOR A PARTICULAR PURPOSE.  See the
    GNU General Public License for more details.

    You should have received a copy of the GNU General Public License
    along with this program.  If not, see <http://www.gnu.org/licenses/>.
-->

<routes>
  <vType vClass="evehicle" id="evehicle" guiShape="evehicle"/>

  <!-- Public Transports -->
  <vType vClass="bus"   id="bus"  guiShape="bus">
    <param key="has.rerouting.device" value="false"/>
  </vType>
  <vType vClass="rail" id="train" guiShape="rail">
    <param key="has.rerouting.device" value="false"/>
  </vType>

  <!-- Vulnerable Road Users -->
  <vType vClass="pedestrian" id="pedestrian" guiShape="pedestrian"/>
  <vType vClass="bicycle"    id="bicycle"    guiShape="bicycle"/>

  <vTypeDistribution id="2wheeler">
    <vType vClass="motorcycle" id="motorcycle"  color=".8,.2,.2" probability=".50" guiShape="motorcycle"/>
    <vType vClass="moped"      id="moped"       color=".8,.2,.2" probability=".50" guiShape="moped"/>
  </vTypeDistribution>

  <!-- Normal vehicles -->
  <vTypeDistribution id="passenger">
    <vType vClass="passenger" id="passenger1"  color=".8,.2,.2" accel="2.6" decel="4.5" sigma="0.5" length="5.0" minGap="1.5" maxSpeed="70" probability=".40" speedDev="0.1" guiShape="passenger/sedan"/>
    <vType vClass="passenger" id="passenger2a" color=".8,.8,.8" accel="3.0" decel="4.5" sigma="0.5" length="4.5" minGap="1.5" maxSpeed="50" probability=".20" speedDev="0.1" guiShape="passenger/hatchback"/>
    <vType vClass="passenger" id="passenger2b" color=".2,.2,.8" accel="2.8" decel="4.5" sigma="0.5" length="4.5" minGap="1.0" maxSpeed="50" probability=".20" speedDev="0.1" guiShape="passenger/hatchback"/>
    <vType vClass="passenger" id="passenger3"  color=".3,.3,.3" accel="2.7" decel="4.5" sigma="0.5" length="6.0" minGap="1.5" maxSpeed="70" probability=".10" speedDev="0.1" guiShape="passenger/wagon"/>
    <vType vClass="passenger" id="passenger4"  color=".9,.9,.9" accel="2.4" decel="4.5" sigma="0.5" length="5.5" minGap="1.5" maxSpeed="30" probability=".10" speedDev="0.1" guiShape="passenger/van"/>
  </vTypeDistribution>

  <!-- Other (special) vehicles -->
  <vTypeDistribution id="other">
    <vType vClass="emergency" id="emergency"  color=".8,.2,.2" probability=".10" guiShape="emergency"/>
    <vType vClass="taxi"      id="taxi"       color=".8,.8,.8" probability=".30" guiShape="passenger/sedan"/>
    <vType vClass="coach"     id="coach"      color=".2,.2,.8" probability=".10" guiShape="passenger/van"/>
    <vType vClass="delivery"  id="delivery"   color=".5,.2,.2" probability=".30" guiShape="delivery"/>
    <vType vClass="truck"     id="truck"      color=".3,.3,.3" probability=".10" guiShape="truck"/>
    <vType vClass="trailer"   id="trailer"    color=".9,.9,.9" probability=".10" guiShape="truck"/>
  </vTypeDistribution>
</routes>
