<!--
    Monaco SUMO Traffic (MoST) Scenario
    Copyright (C) 2019
    Lara CODECA

    This program is free software: you can redistribute it and/or modify
    it under the terms of the GNU General Public License as published by
    the Free Software Foundation, either version 3 of the License, or
    (at your option) any later version.

    This program is distributed in the hope that it will be useful,
    but WITHOUT ANY WARRANTY; without even the implied warranty of
    MERCHANTABILITY or FITNESS FOR A PARTICULAR PURPOSE.  See the
    GNU General Public License for more details.

    You should have received a copy of the GNU General Public License
    along with this program.  If not, see <http://www.gnu.org/licenses/>.
-->

<routes>
  <!-- Public Transports -->
  <vType vClass="bus"  id="bus"   personCapacity="50" latAlignment="center" tau="0.5" speedDev="0.1" lcCooperative="0.0">
    <param key="has.rerouting.device" value="false"/>
  </vType>
  <vType vClass="rail" id="train" personCapacity="500">
    <param key="has.rerouting.device" value="false"/>
  </vType>

  <vTypeDistribution id="on-demand">
    <vType vClass="taxi"       id="taxi"  personCapacity="4" latAlignment="center" probability=".50" tau="0.5" speedDev="0.1"/>
    <vType vClass="passenger"  id="uber"  personCapacity="8" latAlignment="center" probability=".50" tau="0.5" speedDev="0.1"/>
  </vTypeDistribution>

  <!-- Vulnerable Road Users -->
  <vTypeDistribution id="pedestrian">
    <vType vClass="pedestrian"   id="slowpedestrian"  maxSpeed="1.0" latAlignment="compact" probability=".33"/>
    <vType vClass="pedestrian"   id="avgpedestrian"   maxSpeed="1.5" latAlignment="compact" probability=".33"/>
    <vType vClass="pedestrian"   id="fastpedestrian"  maxSpeed="2.0" latAlignment="compact" probability=".33"/>
  </vTypeDistribution>
  <vTypeDistribution id="bicycle">
    <vType vClass="bicycle"      id="slowbicycle"     maxSpeed="4.2" latAlignment="compact" probability=".33"/>
    <vType vClass="bicycle"      id="avgbicycle"      maxSpeed="5.5" latAlignment="compact" probability=".33"/>
    <vType vClass="bicycle"      id="fastbicycle"     maxSpeed="6.9" latAlignment="compact" probability=".33"/>
  </vTypeDistribution>

  <!-- Normal vehicles -->
  <vTypeDistribution id="ptw">
    <vType vClass="motorcycle" id="motorcycle"  personCapacity="2" latAlignment="arbitrary" lcPushy="1.0" minGapLat="0.5" probability=".70" tau="0.5" speedDev="0.1"/>
    <vType vClass="moped"      id="moped"       personCapacity="1" latAlignment="arbitrary" lcPushy="1.0" minGapLat="0.5" probability=".30" tau="0.5" speedDev="0.1"/>
  </vTypeDistribution>
  <vTypeDistribution id="passenger">
    <vType vClass="passenger"  id="passenger1"  personCapacity="4" latAlignment="center" sigma="0.25" probability=".20" tau="0.5" speedDev="0.1" guiShape="passenger"/>
    <vType vClass="passenger"  id="passenger2a" personCapacity="4" latAlignment="center" sigma="0.30" probability=".20" tau="0.5" speedDev="0.1" guiShape="passenger/sedan"/>
    <vType vClass="passenger"  id="passenger2b" personCapacity="4" latAlignment="center" sigma="0.35" probability=".20" tau="0.5" speedDev="0.1" guiShape="passenger/hatchback"/>
    <vType vClass="passenger"  id="passenger3"  personCapacity="6" latAlignment="center" sigma="0.40" probability=".20" tau="0.5" speedDev="0.1" guiShape="passenger/wagon"/>
    <vType vClass="passenger"  id="passenger4"  personCapacity="6" latAlignment="center" sigma="0.50" probability=".20" tau="0.5" speedDev="0.1" guiShape="passenger/van"/>
  </vTypeDistribution>

  <!-- Special vehicles -->
  <vTypeDistribution id="special">
    <vType vClass="emergency" id="emergency" latAlignment="center" probability=".60" tau="0.5" speedDev="0.1"/>
    <vType vClass="authority" id="authority" latAlignment="center" probability=".39" tau="0.5" speedDev="0.1"/>
    <vType vClass="army"      id="army"      latAlignment="center" probability=".01" tau="0.5" speedDev="0.1"/>
  </vTypeDistribution>

  <!-- Other vehicles -->
  <vTypeDistribution id="commercial">
    <vType vClass="delivery"   id="delivery"    containerCapacity="15" latAlignment="center" probability=".75" tau="0.5" speedDev="0.1" lcCooperative="0.0"/>
    <vType vClass="truck"      id="truck"       containerCapacity="5"  latAlignment="center" probability=".05" tau="0.5" speedDev="0.1" lcCooperative="0.0"/>
    <vType vClass="trailer"    id="trailer"     containerCapacity="5"  latAlignment="center" probability=".10" tau="0.5" speedDev="0.1" lcCooperative="0.0"/>
    <vType vClass="coach"      id="coach"       containerCapacity="50" latAlignment="center" probability=".10" tau="0.5" speedDev="0.1" lcCooperative="0.0"/>
  </vTypeDistribution>

  <vType vClass="evehicle"     id="evehicle"    personCapacity="4"     latAlignment="center" tau="0.5" speedDev="0.1"/>
</routes>
