<?xml version="1.0" encoding="UTF-8"?>

<!--
    Monaco SUMO Traffic (MoST) Scenario
    Copyright (C) 2018
    Lara CODECA

    This program is free software: you can redistribute it and/or modify
    it under the terms of the GNU General Public License as published by
    the Free Software Foundation, either version 3 of the License, or
    (at your option) any later version.

    This program is distributed in the hope that it will be useful,
    but WITHOUT ANY WARRANTY; without even the implied warranty of
    MERCHANTABILITY or FITNESS FOR A PARTICULAR PURPOSE.  See the
    GNU General Public License for more details.

    You should have received a copy of the GNU General Public License
    along with this program.  If not, see <http://www.gnu.org/licenses/>.
-->

<additional xmlns:xsi="http://www.w3.org/2001/XMLSchema-instance" xsi:noNamespaceSchemaLocation="http://sumo.dlr.de/xsd/additional_file.xsd"> 
    <busStop id="117805" name="117805" lane="13401#0_1" startPos="360.4190025792369" endPos="375.41900257923686" lines="M3:Hospital" friendlyPos="true"/> <!-- 117805 -->
    <busStop id="117806" name="117806" lane="13980#8_1" startPos="445.5240741266236" endPos="460.5240741266236" lines="M3:Hospital" friendlyPos="true"/> <!-- 117806 -->
    <busStop id="117807" name="Rotondes" lane="-13886#5_1" startPos="5.210000000000001" endPos="20.21" lines="3:Otto" friendlyPos="true"/> <!-- 117807 -->
    <busStop id="117808" name="117808" lane="-13218_1" startPos="15.177610802795574" endPos="30.177610802795577" lines="M3:Turbie" friendlyPos="true"/> <!-- 117808 -->
    <busStop id="117810" name="117810" lane="-13481#0_1" startPos="1365.8223720800777" endPos="1380.822372080078" lines="M3:Turbie" friendlyPos="true"/> <!-- 117810 -->
    <busStop id="117812" name="Cimetiere" lane="-14011#2_1" startPos="100.85183695150938" endPos="115.85183695150938" lines="3:Otto" friendlyPos="true"/> <!-- 117812 -->
    <busStop id="117813" name="Bois Joli" lane="13992#2_1" startPos="44.386496658576505" endPos="59.386496658576505" lines="M4:HotelVille" friendlyPos="true"/> <!-- 117813 -->
    <busStop id="117815" name="117815" lane="13218_1" startPos="56.64527334442964" endPos="71.64527334442964" lines="M3:Hospital" friendlyPos="true"/> <!-- 117815 -->
    <busStop id="117816" name="La Turbie Marie" lane="13980#0_1" startPos="5.379999999999999" endPos="20.38" lines="M3:Hospital M2:Turbie" friendlyPos="true"/> <!-- 117816 -->
    <busStop id="117817" name="Chapelle de Saint-Laurent" lane="-13975_1" startPos="985.5343411731861" endPos="1000.5343411731861" lines="M1:France" friendlyPos="true"/> <!-- 117817 -->
    <busStop id="117819" name="117819" lane="-13401#4_1" startPos="153.6698277287881" endPos="168.6698277287881" lines="M3:Turbie" friendlyPos="true"/> <!-- 117819 -->
    <busStop id="117821" name="Les Cigognes" lane="-14084#0_1" startPos="30.470612647958475" endPos="45.470612647958475" lines="M4:Train" friendlyPos="true"/> <!-- 117821 -->
    <busStop id="117822" name="Louis Aureglia" lane="-14043#0_1" startPos="131.89" endPos="146.89" lines="4:SaintRoman" friendlyPos="true"/> <!-- 117822 -->
    <busStop id="117823" name="117823" lane="13401#4_1" startPos="178.51307860694115" endPos="193.51307860694115" lines="M3:Hospital" friendlyPos="true"/> <!-- 117823 -->
    <busStop id="117824" name="117824" lane="13980#6_1" startPos="207.8094312424659" endPos="222.8094312424659" lines="M3:Hospital" friendlyPos="true"/> <!-- 117824 -->
    <busStop id="117825" name="117825" lane="-13401#2_1" startPos="317.89088647173224" endPos="332.89088647173224" lines="M3:Turbie" friendlyPos="true"/> <!-- 117825 -->
    <busStop id="117826" name="117826" lane="-13980#6_1" startPos="434.691006100712" endPos="449.691006100712" lines="M3:Turbie" friendlyPos="true"/> <!-- 117826 -->
    <busStop id="117827" name="117827" lane="14553#8_1" startPos="59.4847457633191" endPos="74.4847457633191" lines="" friendlyPos="true"/> <!-- 117827 -->
    <busStop id="117828" name="Monte-Carlo (TAM)" lane="13739#3_1" startPos="6.719919127758226" endPos="21.719919127758224" lines="100:Menton" friendlyPos="true"/> <!-- 117828 -->
    <busStop id="117829" name="Portier" lane="13726#2_1" startPos="21.62823473697742" endPos="36.62823473697742" lines="1:SaintRoman 5:Larvotto 6:Larvotto" friendlyPos="true"/> <!-- 117829 -->
    <busStop id="117830" name="Princesse Stephanie" lane="13458_1" startPos="11.71" endPos="26.71" lines="1:SaintRoman 2:Jardin" friendlyPos="true"/> <!-- 117830 -->
    <busStop id="117831" name="Castelleretto" lane="14043#3_1" startPos="11.3" endPos="26.3" lines="4:Fontvieille" friendlyPos="true"/> <!-- 117831 -->
    <busStop id="117832" name="Honore II" lane="-13867#1_1" startPos="169.4399142936434" endPos="184.4399142936434" lines="4:Fontvieille" friendlyPos="true"/> <!-- 117832 -->
    <busStop id="117833" name="Pont Sainte-Devote" lane="13299_1" startPos="9.64" endPos="24.64" lines="2:Jardin 4:Fontvieille 5:Hopital" friendlyPos="true"/> <!-- 117833 -->
    <busStop id="117834" name="Villa Paloma" lane="13886#3_1" startPos="77.68052213782883" endPos="92.68052213782883" lines="2:Monaco 3:Fontvieille" friendlyPos="true"/> <!-- 117834 -->
    <busStop id="117835" name="Villa Paloma" lane="-13886#3_1" startPos="87.1424711625332" endPos="102.1424711625332" lines="2:Jardin 3:Otto" friendlyPos="true"/> <!-- 117835 -->
    <busStop id="117836" name="Citronniers" lane="13749#3_1" startPos="5.0" endPos="20.0" lines="1:SaintRoman 5:Hopital 6:Fontvieille" friendlyPos="true"/> <!-- 117836 -->
    <busStop id="117837" name="Spelugues" lane="13749#0_1" startPos="103.09142255632335" endPos="118.09142255632335" lines="1:SaintRoman 5:Hopital 6:Fontvieille" friendlyPos="true"/> <!-- 117837 -->
    <busStop id="117840" name="Cimetiere" lane="14011#2_1" startPos="307.41749137621844" endPos="322.4174913762185" lines="3:Fontvieille" friendlyPos="true"/> <!-- 117840 -->
    <busStop id="117841" name="Hopital" lane="13971#1_1" startPos="159.03" endPos="174.03" lines="M3:Hospital 5:Hopital 5:Larvotto 3:Otto" friendlyPos="true"/> <!-- 117841 -->
    <busStop id="117842" name="Athanee" lane="-14011#0_1" startPos="5.0" endPos="20.0" lines="5:Hopital 3:Otto" friendlyPos="true"/> <!-- 117842 -->
    <busStop id="117843" name="Monte-Carlo (Tourisme)" lane="13739#3_1" startPos="5.0" endPos="20.0" lines="1:SaintRoman 2:Jardin 4:SaintRoman 5:Hopital 5:Larvotto 6:Larvotto" friendlyPos="true"/> <!-- 117843 -->
    <busStop id="117844" name="Roseraie" lane="13718_1" startPos="5.0" endPos="20.0" lines="4:SaintRoman 6:Larvotto" friendlyPos="true"/> <!-- 117844 -->
    <busStop id="117845" name="Place du Casino" lane="13749#5_1" startPos="16.83083921615352" endPos="31.83083921615352" lines="1:SaintRoman 5:Hopital 6:Fontvieille" friendlyPos="true"/> <!-- 117845 -->
    <busStop id="117846" name="Place Sainte-Devote (Gare)" lane="13892_1" startPos="36.01708123155929" endPos="51.01708123155929" lines="1:Monaco 2:Monaco 6:Fontvieille 100:Nice 3:Otto" friendlyPos="true"/> <!-- 117846 -->
    <busStop id="117847" name="Saint-Charles" lane="13739#7_1" startPos="13.155289879350608" endPos="28.155289879350608" lines="1:SaintRoman 4:SaintRoman" friendlyPos="true"/> <!-- 117847 -->
    <busStop id="117848" name="Monte-Carlo" lane="13774#1_1" startPos="27.54" endPos="42.54" lines="1:Monaco 2:Monaco 6:Fontvieille" friendlyPos="true"/> <!-- 117848 -->
    <busStop id="117849" name="Square Beaumarchais" lane="13744#2_1" startPos="45.019999999999996" endPos="60.019999999999996" lines="1:Monaco 2:Monaco 6:Fontvieille" friendlyPos="true"/> <!-- 117849 -->
    <busStop id="117853" name="Beaverbrook" lane="14550#22_1" startPos="23.03462510791088" endPos="38.034625107910884" lines="100:Nice" friendlyPos="true"/> <!-- 117853 -->
    <busStop id="117854" name="Casernes" lane="-14066_1" startPos="302.27672145173" endPos="317.27672145173" lines="100:Nice" friendlyPos="true"/> <!-- 117854 -->
    <busStop id="117855" name="Moneghetti" lane="13886#6_1" startPos="105.17" endPos="120.17" lines="2:Monaco 3:Fontvieille" friendlyPos="true"/> <!-- 117855 -->
    <busStop id="117856" name="Marche" lane="14427_1" startPos="75.22566816517377" endPos="90.22566816517377" lines="100:Menton" friendlyPos="true"/> <!-- 117856 -->
    <busStop id="117857" name="Casernes" lane="-14086#0_1" startPos="1632.4390438660032" endPos="1647.4390438660032" lines="100:Menton" friendlyPos="true"/> <!-- 117857 -->
    <busStop id="117858" name="Bien Situee" lane="-14066_1" startPos="658.8487402323234" endPos="673.8487402323234" lines="100:Nice" friendlyPos="true"/> <!-- 117858 -->
    <busStop id="117859" name="Place d'Armes (TAM)" lane="-13893#2_1" startPos="10.670840234348024" endPos="25.67084023434802" lines="100:Nice" friendlyPos="true"/> <!-- 117859 -->
    <busStop id="117860" name="Mairie" lane="-13627_1" startPos="977.0409780476758" endPos="992.0409780476758" lines="M5:Ramingao" friendlyPos="true"/> <!-- 117860 -->
    <busStop id="117861" name="Victoria" lane="13626_1" startPos="621.3971060722524" endPos="636.3971060722524" lines="M5:PontUnion" friendlyPos="true"/> <!-- 117861 -->
    <busStop id="117862" name="Le Cirta" lane="-13627_1" startPos="672.9829392718673" endPos="687.9829392718673" lines="M5:Ramingao" friendlyPos="true"/> <!-- 117862 -->
    <busStop id="117863" name="Orchidees" lane="-14031_1" startPos="1333.36910503312" endPos="1348.36910503312" lines="M5:PontUnion" friendlyPos="true"/> <!-- 117863 -->
    <busStop id="117864" name="Cypris" lane="-14031_1" startPos="956.958983145131" endPos="971.9589831451311" lines="M5:PontUnion" friendlyPos="true"/> <!-- 117864 -->
    <busStop id="117865" name="Pont Sainte-Devote" lane="13773#0_1" startPos="11.71" endPos="26.71" lines="2:Monaco 4:SaintRoman 5:Larvotto" friendlyPos="true"/> <!-- 117865 -->
    <busStop id="117866" name="Plages" lane="13607#2_1" startPos="118.69195420861294" endPos="133.69195420861294" lines="5:Hopital 6:Fontvieille" friendlyPos="true"/> <!-- 117866 -->
    <busStop id="117867" name="Varavilla" lane="14450_1" startPos="17.92454413207882" endPos="32.92454413207882" lines="4:Fontvieille" friendlyPos="true"/> <!-- 117867 -->
    <busStop id="117868" name="Portier" lane="13607#6_1" startPos="32.87411559240632" endPos="47.87411559240632" lines="5:Hopital 6:Fontvieille" friendlyPos="true"/> <!-- 117868 -->
    <busStop id="117869" name="Larvotto" lane="13606#7_1" startPos="71.71" endPos="86.71" lines="5:Hopital 5:Larvotto 6:Larvotto 6:Fontvieille" friendlyPos="true"/> <!-- 117869 -->
    <busStop id="117870" name="Place d'Armes (vers Monaco Ville)" lane="-13889#2_1" startPos="5.0" endPos="20.0" lines="2:Monaco" friendlyPos="true"/> <!-- 117870 -->
    <busStop id="117871" name="Saint-Roman (Bus 4)" lane="-13420_1" startPos="5.0" endPos="20.0" lines="4:SaintRoman 4:Fontvieille" friendlyPos="true"/> <!-- 117871 -->
    <busStop id="117872" name="Hopital" lane="13942#5_1" startPos="161.76" endPos="176.76" lines="M3:Turbie 5:Hopital 3:Fontvieille" friendlyPos="true"/> <!-- 117872 -->
    <busStop id="117873" name="Spelugues" lane="-13749#0_1" startPos="62.7804359517431" endPos="77.78043595174312" lines="5:Larvotto 6:Larvotto" friendlyPos="true"/> <!-- 117873 -->
    <busStop id="117874" name="Fontvieille - Centre Commercial" lane="14715_1" startPos="46.343001267719444" endPos="61.343001267719444" lines="4:SaintRoman 4:Fontvieille 6:Larvotto 6:Fontvieille 3:Fontvieille" friendlyPos="true"/> <!-- 117874 -->
    <busStop id="117875" name="Monte-Carlo (TAM)" lane="13774#1_1" startPos="19.635925850660765" endPos="34.63592585066077" lines="100:Nice" friendlyPos="true"/> <!-- 117875 -->
    <busStop id="117876" name="Cremaillere" lane="13786#1_1" startPos="11.406136569907382" endPos="26.406136569907382" lines="2:Jardin 4:Fontvieille 5:Hopital" friendlyPos="true"/> <!-- 117876 -->
    <busStop id="117877" name="Terrasses du Casino" lane="13847#0_1" startPos="16.333843318113665" endPos="31.333843318113658" lines="2:Jardin 6:Larvotto" friendlyPos="true"/> <!-- 117877 -->
    <busStop id="117878" name="Stade Nautique" lane="13888#3_1" startPos="17.50230178304174" endPos="32.502301783041744" lines="1:SaintRoman 2:Jardin 6:Larvotto 3:Otto" friendlyPos="true"/> <!-- 117878 -->
    <busStop id="117879" name="Princesse Antoinette" lane="13888#5_1" startPos="8.611939672180899" endPos="23.6119396721809" lines="1:SaintRoman 2:Jardin 6:Larvotto 3:Otto" friendlyPos="true"/> <!-- 117879 -->
    <busStop id="117880" name="Kennedy" lane="13859#1_1" startPos="62.758223323291745" endPos="77.75822332329174" lines="1:SaintRoman" friendlyPos="true"/> <!-- 117880 -->
    <busStop id="117881" name="Auditorium Rainier III" lane="13834_1" startPos="176.27" endPos="191.27" lines="1:SaintRoman" friendlyPos="true"/> <!-- 117881 -->
    <busStop id="117882" name="Ostende" lane="-13882#1_1" startPos="136.48300709744453" endPos="151.48300709744453" lines="2:Jardin 6:Larvotto" friendlyPos="true"/> <!-- 117882 -->
    <busStop id="117883" name="Roqueville" lane="-13773#3_1" startPos="5.84" endPos="20.84" lines="2:Jardin 4:Fontvieille 5:Hopital" friendlyPos="true"/> <!-- 117883 -->
    <busStop id="117884" name="Moneghetti" lane="-13886#7_1" startPos="5.0" endPos="20.0" lines="2:Jardin 3:Otto" friendlyPos="true"/> <!-- 117884 -->
    <busStop id="117885" name="Louis Aureglia" lane="14043#0_1" startPos="5.0" endPos="20.0" lines="4:Fontvieille" friendlyPos="true"/> <!-- 117885 -->
    <busStop id="117886" name="Castelleretto" lane="-14043#1_1" startPos="7.813791170053538" endPos="22.813791170053538" lines="4:SaintRoman" friendlyPos="true"/> <!-- 117886 -->
    <busStop id="117887" name="Heliport" lane="-13945#3_1" startPos="10.690000000000001" endPos="25.69" lines="4:SaintRoman 6:Larvotto" friendlyPos="true"/> <!-- 117887 -->
    <busStop id="117888" name="Papalins" lane="13523_1" startPos="153.45344334429166" endPos="168.45344334429163" lines="4:SaintRoman 6:Larvotto" friendlyPos="true"/> <!-- 117888 -->
    <busStop id="117889" name="Port de Fontvieille" lane="14714_1" startPos="26.62675344709467" endPos="41.62675344709467" lines="6:Larvotto 3:Otto" friendlyPos="true"/> <!-- 117889 -->
    <busStop id="117890" name="Pasteur" lane="-14011#2_1" startPos="436.3291023489299" endPos="451.3291023489299" lines="3:Otto" friendlyPos="true"/> <!-- 117890 -->
    <busStop id="117891" name="Observatoire" lane="-13942#4_1" startPos="49.22729597467476" endPos="64.22729597467476" lines="5:Larvotto 3:Otto" friendlyPos="true"/> <!-- 117891 -->
    <busStop id="117892" name="Bosio" lane="-13942#0_1" startPos="62.66" endPos="77.66" lines="5:Larvotto 3:Otto" friendlyPos="true"/> <!-- 117892 -->
    <busStop id="117893" name="Bosio" lane="-14019#0_1" startPos="67.51" endPos="82.51" lines="5:Hopital 3:Fontvieille" friendlyPos="true"/> <!-- 117893 -->
    <busStop id="117894" name="Grimaldi Forum/Villa Sauber" lane="13606#2_1" startPos="132.9412889448295" endPos="147.9412889448295" lines="5:Larvotto 6:Larvotto" friendlyPos="true"/> <!-- 117894 -->
    <busStop id="117895" name="Sea Club" lane="13606#6_1" startPos="133.05641002019541" endPos="148.05641002019544" lines="5:Larvotto 6:Larvotto" friendlyPos="true"/> <!-- 117895 -->
    <busStop id="117896" name="Grimaldi Forum/Villa Sauber" lane="13607#4_1" startPos="81.38652738381393" endPos="96.38652738381393" lines="5:Hopital 6:Fontvieille" friendlyPos="true"/> <!-- 117896 -->
    <busStop id="117897" name="Hector Otto" lane="13908#6_1" startPos="42.08278055380589" endPos="57.08278055380588" lines="3:Fontvieille 3:Otto" friendlyPos="true"/> <!-- 117897 -->
    <busStop id="117898" name="Belgique" lane="13886#10_1" startPos="82.41398360062692" endPos="97.41398360062692" lines="2:Monaco 3:Fontvieille" friendlyPos="true"/> <!-- 117898 -->
    <busStop id="117900" name="Place d'Armes (Charles III)" lane="-13893#2_1" startPos="22.619999999999997" endPos="37.62" lines="3:Otto" friendlyPos="true"/> <!-- 117900 -->
    <busStop id="117901" name="Place d'Armes (Charles III)" lane="13893#2_1" startPos="23.740000000000002" endPos="38.74" lines="4:SaintRoman 100:Menton 3:Fontvieille" friendlyPos="true"/> <!-- 117901 -->
    <busStop id="117902" name="Monaco Ville (le Rocher)" lane="-13845_1" startPos="14.485290537084268" endPos="29.485290537084268" lines="1:SaintRoman 1:Monaco 2:Jardin 2:Monaco" friendlyPos="true"/> <!-- 117902 -->
    <busStop id="117903" name="Athanee" lane="14011#0_1" startPos="5.0" endPos="20.0" lines="3:Fontvieille" friendlyPos="true"/> <!-- 117903 -->
    <busStop id="117904" name="Place d'Armes (Port)" lane="13874_1" startPos="14.560000000000002" endPos="29.560000000000002" lines="1:SaintRoman 1:Monaco 2:Jardin 4:Fontvieille 6:Fontvieille 3:Fontvieille" friendlyPos="true"/> <!-- 117904 -->
    <busStop id="117905" name="Belgique" lane="-13886#10_1" startPos="12.265184036582674" endPos="27.265184036582674" lines="2:Jardin 3:Otto" friendlyPos="true"/> <!-- 117905 -->
    <busStop id="117906" name="La Vigie" lane="-13904#5_1" startPos="143.67" endPos="158.67" lines="" friendlyPos="true"/> <!-- 117906 -->
    <busStop id="117907" name="Princesse Stephanie" lane="13861#0_1" startPos="5.0" endPos="20.0" lines="4:Fontvieille 6:Fontvieille 3:Fontvieille" friendlyPos="true"/> <!-- 117907 -->
    <busStop id="117908" name="Princesse Florestine" lane="13892_1" startPos="186.8753699780366" endPos="201.8753699780366" lines="1:Monaco 2:Monaco 6:Fontvieille 3:Otto" friendlyPos="true"/> <!-- 117908 -->
    <busStop id="117909" name="Belgique" lane="14019#2_1" startPos="38.11136583662956" endPos="53.11136583662957" lines="5:Larvotto 3:Otto" friendlyPos="true"/> <!-- 117909 -->
    <busStop id="117910" name="La Rousse" lane="-13677#1_1" startPos="33.42102028499167" endPos="48.42102028499167" lines="1:Monaco 4:Fontvieille" friendlyPos="true"/> <!-- 117910 -->
    <busStop id="117911" name="Carmes" lane="-13654#3_1" startPos="9.927707824037011" endPos="24.92770782403701" lines="1:SaintRoman 4:SaintRoman" friendlyPos="true"/> <!-- 117911 -->
    <busStop id="117912" name="Place du Casino" lane="-13749#4_1" startPos="5.0" endPos="20.0" lines="5:Larvotto 6:Larvotto" friendlyPos="true"/> <!-- 117912 -->
    <busStop id="117913" name="La Rousse" lane="13677#2_1" startPos="7.559999999999999" endPos="22.56" lines="1:SaintRoman 4:SaintRoman" friendlyPos="true"/> <!-- 117913 -->
    <busStop id="117914" name="Place des Moulins" lane="-13677#0_1" startPos="64.32420425126165" endPos="79.32420425126165" lines="1:Monaco 4:Fontvieille 100:Nice" friendlyPos="true"/> <!-- 117914 -->
    <busStop id="117915" name="Place des Moulins" lane="13739#11_1" startPos="57.50788319335187" endPos="72.50788319335187" lines="1:SaintRoman 4:SaintRoman" friendlyPos="true"/> <!-- 117915 -->
    <busStop id="117916" name="117916" lane="13773#4_1" startPos="23.49457706929419" endPos="38.494577069294195" lines="" friendlyPos="true"/> <!-- 117916 -->
    <busStop id="117917" name="Plages" lane="13606#4_1" startPos="234.94242145572485" endPos="249.94242145572485" lines="5:Larvotto 6:Larvotto" friendlyPos="true"/> <!-- 117917 -->
    <busStop id="117918" name="Ostende" lane="13882#0_1" startPos="155.24824861557687" endPos="170.24824861557687" lines="1:Monaco 2:Monaco 6:Fontvieille" friendlyPos="true"/> <!-- 117918 -->
    <busStop id="117919" name="Carmes" lane="13654#4_1" startPos="20.049294001843116" endPos="35.049294001843116" lines="1:Monaco 4:Fontvieille" friendlyPos="true"/> <!-- 117919 -->
    <busStop id="117920" name="Saint-Charles" lane="-13725_1" startPos="64.84" endPos="79.84" lines="1:Monaco 4:Fontvieille" friendlyPos="true"/> <!-- 117920 -->
    <busStop id="117921" name="Rotondes" lane="-13886#4_1" startPos="128.86278842656833" endPos="143.86278842656833" lines="2:Jardin" friendlyPos="true"/> <!-- 117921 -->
    <busStop id="117922" name="Rotondes" lane="13886#5_1" startPos="6.649999999999999" endPos="21.65" lines="3:Fontvieille" friendlyPos="true"/> <!-- 117922 -->
    <busStop id="117923" name="Jardin Exotique" lane="13968_1" startPos="5.0" endPos="20.0" lines="2:Jardin 2:Monaco" friendlyPos="true"/> <!-- 117923 -->
    <busStop id="117924" name="Rotondes" lane="13886#3_1" startPos="90.54" endPos="105.54" lines="2:Monaco" friendlyPos="true"/> <!-- 117924 -->
    <busStop id="117925" name="Saint-Joseph" lane="13619_1" startPos="106.99864378779777" endPos="121.99864378779777" lines="100:Nice" friendlyPos="true"/> <!-- 117925 -->
    <busStop id="117926" name="Pont de l'Union" lane="14732_1" startPos="49.09420128977331" endPos="64.09420128977331" lines="M5:Ramingao" friendlyPos="true"/> <!-- 117926 -->
    <busStop id="117927" name="Bien Situee" lane="-14086#0_1" startPos="1260.1161192441602" endPos="1275.1161192441602" lines="100:Menton" friendlyPos="true"/> <!-- 117927 -->
    <busStop id="117928" name="1er Hameau" lane="-14086#0_1" startPos="607.8246235227087" endPos="622.8246235227087" lines="100:Menton" friendlyPos="true"/> <!-- 117928 -->
    <busStop id="117929" name="1er Hameau" lane="-14066_1" startPos="1283.8160226163525" endPos="1298.8160226163527" lines="100:Nice" friendlyPos="true"/> <!-- 117929 -->
    <busStop id="117930" name="2e Hameau" lane="-14066_1" startPos="1639.198131457575" endPos="1654.1981314575753" lines="100:Nice" friendlyPos="true"/> <!-- 117930 -->
    <busStop id="117931" name="Torraca" lane="14566_1" startPos="291.1318910562448" endPos="306.1318910562448" lines="100:Menton" friendlyPos="true"/> <!-- 117931 -->
    <busStop id="117932" name="Torraca" lane="-14566_1" startPos="273.8259772522721" endPos="288.8259772522721" lines="100:Nice" friendlyPos="true"/> <!-- 117932 -->
    <busStop id="117933" name="2e Hameau" lane="-14086#0_1" startPos="269.2354042642565" endPos="284.2354042642565" lines="100:Menton 21:Menton" friendlyPos="true"/> <!-- 117933 -->
    <busStop id="117934" name="Riva Bella" lane="-14086#0_1" startPos="67.3879828965056" endPos="82.3879828965056" lines="100:Menton" friendlyPos="true"/> <!-- 117934 -->
    <busStop id="117935" name="Massolin" lane="-14566_1" startPos="430.65252361292715" endPos="445.65252361292715" lines="100:Nice" friendlyPos="true"/> <!-- 117935 -->
    <busStop id="117936" name="Massolin" lane="14431#2_1" startPos="100.39622897522483" endPos="115.39622897522483" lines="100:Menton" friendlyPos="true"/> <!-- 117936 -->
    <busStop id="117937" name="Massolin" lane="-14031_1" startPos="113.35636440607514" endPos="128.35636440607516" lines="M5:PontUnion" friendlyPos="true"/> <!-- 117937 -->
    <busStop id="117938" name="1er Escalier" lane="-14431#1_1" startPos="17.84901378752203" endPos="32.849013787522026" lines="M5:Ramingao 100:Nice" friendlyPos="true"/> <!-- 117938 -->
    <busStop id="117939" name="1er Escalier" lane="14431#1_1" startPos="477.966828701451" endPos="492.96682870145094" lines="M5:PontUnion 100:Menton" friendlyPos="true"/> <!-- 117939 -->
    <busStop id="117940" name="2e Escalier" lane="-14431#1_1" startPos="310.7258028550495" endPos="325.72580285504944" lines="M5:Ramingao 100:Nice" friendlyPos="true"/> <!-- 117940 -->
    <busStop id="117941" name="2e Escalier" lane="14431#1_1" startPos="216.9466253442298" endPos="231.9466253442298" lines="M5:PontUnion 100:Menton" friendlyPos="true"/> <!-- 117941 -->
    <busStop id="117942" name="Datcha" lane="14431#0_1" startPos="82.24148046423593" endPos="97.24148046423593" lines="100:Menton" friendlyPos="true"/> <!-- 117942 -->
    <busStop id="117943" name="Les 4 Chemins" lane="-14067#0_1" startPos="359.97105964563804" endPos="374.97105964563804" lines="100:Nice" friendlyPos="true"/> <!-- 117943 -->
    <busStop id="117944" name="Ramingao" lane="14067#0_1" startPos="310.65561101225364" endPos="325.6556110122537" lines="M5:PontUnion" friendlyPos="true"/> <!-- 117944 -->
    <busStop id="117945" name="Ramingao" lane="-14067#0_1" startPos="8.812179881191268" endPos="23.81217988119127" lines="M5:Ramingao 100:Nice" friendlyPos="true"/> <!-- 117945 -->
    <busStop id="117946" name="Les 4 Chemins" lane="14397#4_1" startPos="239.86368222688307" endPos="254.86368222688307" lines="100:Menton" friendlyPos="true"/> <!-- 117946 -->
    <busStop id="117947" name="Deux Tunnels" lane="14551#1_1" startPos="495.41157804347364" endPos="510.41157804347364" lines="100:Menton" friendlyPos="true"/> <!-- 117947 -->
    <busStop id="117948" name="Chapelle de Saint-Laurent" lane="13975_1" startPos="2520.392635209705" endPos="2535.392635209705" lines="M1:Eze" friendlyPos="true"/> <!-- 117948 -->
    <busStop id="117949" name="Saint-Roman" lane="13654#0_1" startPos="55.61782750533816" endPos="70.61782750533817" lines="4:Fontvieille 100:Nice" friendlyPos="true"/> <!-- 117949 -->
    <busStop id="117950" name="La Turbie Marie" lane="-13817_1" startPos="3.289999999999999" endPos="18.29" lines="M2:France M3:Turbie" friendlyPos="true"/> <!-- 117950 -->
    <busStop id="117951" name="117951" lane="-14553#8_1" startPos="82.88281097585693" endPos="97.88281097585693" lines="" friendlyPos="true"/> <!-- 117951 -->
    <busStop id="117952" name="Saint-Roman (Bus 1)" lane="13420_1" startPos="23.577089989932166" endPos="38.57708998993217" lines="1:SaintRoman 1:Monaco" friendlyPos="true"/> <!-- 117952 -->
    <busStop id="117953" name="117953" lane="-14534_1" startPos="21.404384690587825" endPos="36.40438469058783" lines="M1:Eze M2:Turbie" friendlyPos="true"/> <!-- 117953 -->
    <busStop id="117954" name="117954" lane="14534_1" startPos="74.96862739158762" endPos="89.9686273915876" lines="M1:France M2:France" friendlyPos="true"/> <!-- 117954 -->
    <busStop id="117955" name="Cap Estel" lane="-13999_1" startPos="755.6427451947118" endPos="770.6427451947118" lines="100:Nice" friendlyPos="true"/> <!-- 117955 -->
    <busStop id="117956" name="Cap Estel" lane="13999_1" startPos="74.75683042781924" endPos="89.75683042781924" lines="100:Menton" friendlyPos="true"/> <!-- 117956 -->
    <busStop id="117957" name="Parking Saint-Laurent d'Eze" lane="-13999_1" startPos="307.0252755908137" endPos="322.0252755908137" lines="M1:Eze 100:Nice" friendlyPos="true"/> <!-- 117957 -->
    <busStop id="117958" name="Parking Saint-Laurent d'Eze" lane="13999_1" startPos="444.77716144670376" endPos="459.77716144670364" lines="M1:France 100:Menton" friendlyPos="true"/> <!-- 117958 -->
    <busStop id="117959" name="Gianton" lane="14551#0_1" startPos="56.68333838777133" endPos="71.68333838777133" lines="100:Menton" friendlyPos="true"/> <!-- 117959 -->
    <busStop id="117960" name="Gianton" lane="-14551#1_1" startPos="625.1879542818655" endPos="640.1879542818655" lines="100:Nice" friendlyPos="true"/> <!-- 117960 -->
    <busStop id="117961" name="Deux Tunnels" lane="-14551#1_1" startPos="121.94796984658635" endPos="136.94796984658635" lines="100:Nice" friendlyPos="true"/> <!-- 117961 -->
    <busStop id="117962" name="Edmond's Cap d'Ail" lane="-14550#24_1" startPos="6.281121144522299" endPos="21.2811211445223" lines="100:Menton" friendlyPos="true"/> <!-- 117962 -->
    <busStop id="117963" name="Guillaume Apollinaire" lane="-14550#20_1" startPos="117.05326754858109" endPos="132.0532675485811" lines="M4:HotelVille 100:Menton" friendlyPos="true"/> <!-- 117963 -->
    <busStop id="117964" name="La Source" lane="14550#18_1" startPos="10.071778509872168" endPos="25.071778509872168" lines="M4:Train 100:Nice" friendlyPos="true"/> <!-- 117964 -->
    <busStop id="117965" name="L'Eglise" lane="-14550#16_1" startPos="229.81" endPos="244.81" lines="M4:HotelVille 100:Menton" friendlyPos="true"/> <!-- 117965 -->
    <busStop id="117966" name="L'Eglise" lane="14550#13_1" startPos="267.93" endPos="282.93" lines="M4:Train 100:Nice" friendlyPos="true"/> <!-- 117966 -->
    <busStop id="117967" name="Hotel de Ville" lane="-14550#13_1" startPos="225.34268130074514" endPos="240.34268130074514" lines="M4:HotelVille 100:Menton" friendlyPos="true"/> <!-- 117967 -->
    <busStop id="117968" name="Hotel de Ville" lane="14550#13_1" startPos="104.83201497205104" endPos="119.83201497205104" lines="100:Nice" friendlyPos="true"/> <!-- 117968 -->
    <busStop id="117969" name="Le Loup Blanc" lane="14082#0_1" startPos="5.0" endPos="20.0" lines="100:Nice" friendlyPos="true"/> <!-- 117969 -->
    <busStop id="117970" name="Le Loup Blanc" lane="-14550#8_1" startPos="23.295092141443465" endPos="38.29509214144346" lines="100:Menton" friendlyPos="true"/> <!-- 117970 -->
    <busStop id="117971" name="Liberte" lane="-14550#6_1" startPos="27.11303169480749" endPos="42.11303169480748" lines="100:Menton" friendlyPos="true"/> <!-- 117971 -->
    <busStop id="117972" name="Liberte" lane="14550#2_1" startPos="13.96" endPos="28.96" lines="100:Nice" friendlyPos="true"/> <!-- 117972 -->
    <busStop id="117973" name="Cimetiere" lane="13610#0_1" startPos="142.4494125961817" endPos="157.4494125961817" lines="100:Menton" friendlyPos="true"/> <!-- 117973 -->
    <busStop id="117974" name="Cimetiere" lane="13490_1" startPos="73.02094815556939" endPos="88.02094815556939" lines="4:SaintRoman" friendlyPos="true"/> <!-- 117974 -->
    <busStop id="117975" name="Saint-Roman" lane="14439#0_1" startPos="80.31521192381787" endPos="95.31521192381786" lines="100:Menton" friendlyPos="true"/> <!-- 117975 -->
    <busStop id="117976" name="La Tranchee" lane="14439#4_1" startPos="223.3354689109787" endPos="238.3354689109787" lines="100:Menton" friendlyPos="true"/> <!-- 117976 -->
    <busStop id="117977" name="La Tranchee" lane="-14397#1_1" startPos="123.46137235066801" endPos="138.46137235066806" lines="100:Nice" friendlyPos="true"/> <!-- 117977 -->
    <busStop id="117978" name="La Boucherie" lane="-14397#2_1" startPos="74.2116191491834" endPos="89.2116191491834" lines="100:Nice" friendlyPos="true"/> <!-- 117978 -->
    <busStop id="117979" name="La Boucherie" lane="14397#4_1" startPos="24.39210932706632" endPos="39.39210932706632" lines="100:Menton" friendlyPos="true"/> <!-- 117979 -->