<?xml version="1.0" encoding="UTF-8"?>

<!-- 
    Monaco SUMO Traffic (MoST) Scenario
    Copyright (C) 2018 
    Lara CODECA

    This program is free software: you can redistribute it and/or modify
    it under the terms of the GNU General Public License as published by
    the Free Software Foundation, either version 3 of the License, or
    (at your option) any later version.

    This program is distributed in the hope that it will be useful,
    but WITHOUT ANY WARRANTY; without even the implied warranty of
    MERCHANTABILITY or FITNESS FOR A PARTICULAR PURPOSE.  See the
    GNU General Public License for more details.

    You should have received a copy of the GNU General Public License
    along with this program.  If not, see <http://www.gnu.org/licenses/>.
-->

<additional xmlns:xsi="http://www.w3.org/2001/XMLSchema-instance" xsi:noNamespaceSchemaLocation="http://sumo.dlr.de/xsd/additional_file.xsd">
    <location netOffset="-368141.85,-4841896.61" convBoundary="-55.32,-91.69,10035.26,7467.57" origBoundary="7.362130,43.717722,7.486528,43.785993" projParameter="+proj=utm +zone=32 +ellps=WGS84 +datum=WGS84 +units=m +no_defs"/>

    <poly id="1" type="boundary.administrative" color="255,26,26" fill="0" layer="0.00" shape="10035.26,4850.81 10034.04,4751.83 9911.36,4753.34 9912.58,4852.31 10035.26,4850.81"/>
    <poly id="1594" type="boundary.administrative" color="255,26,26" fill="0" layer="0.00" shape="9956.90,5067.68 9937.66,4730.83"/>
    <poly id="1595" type="boundary.administrative" color="255,26,26" fill="0" layer="0.00" shape="8354.51,7351.74 9387.77,7330.94"/>
    <poly id="1596" type="boundary.administrative" color="255,26,26" fill="0" layer="0.00" shape="8354.51,7351.74 4945.05,7414.99"/>
    <poly id="1597" type="boundary.administrative" color="255,26,26" fill="0" layer="0.00" shape="2072.66,7467.57 4945.05,7414.99"/>
    <poly id="1598" type="boundary.administrative" color="255,26,26" fill="0" layer="0.00" shape="35.86,2515.94 -1.15,416.34"/>
    <poly id="1599" type="boundary.administrative" color="255,26,26" fill="0" layer="0.00" shape="80.50,4497.43 35.86,2515.94"/>
    <poly id="1600" type="boundary.administrative" color="255,26,26" fill="0" layer="0.00" shape="9956.90,5067.68 10021.67,7321.61 9387.77,7330.94"/>
    <poly id="1601" type="boundary.administrative" color="255,26,26" fill="0" layer="0.00" shape="4479.24,621.91 4682.40,817.98 4810.00,897.90 4810.53,897.42 4925.21,969.19 4914.53,987.05 4833.32,1026.81 4834.55,1041.84 4828.96,1042.72 4833.91,1131.95"/>
    <poly id="1602" type="boundary.administrative" color="255,26,26" fill="0" layer="0.00" shape="2352.52,134.65 2345.60,131.43 2341.24,130.86 2348.01,124.27 2353.62,122.58 2360.63,124.85 2364.85,128.21 2370.43,130.86 2372.90,136.51 2366.08,141.00 2361.01,140.83 2352.52,134.65"/>
    <poly id="1603" type="boundary.administrative" color="255,26,26" fill="0" layer="0.00" shape="6184.52,3303.56 6194.80,3326.75 6208.88,3342.06 6229.20,3354.00 6259.13,3372.02 6282.32,3387.51 6294.61,3397.62 6308.49,3400.80 6327.69,3410.77 6339.10,3420.02 6350.62,3435.30 6360.31,3445.45 6382.16,3457.96 6410.06,3471.22 6434.56,3487.98 6459.79,3496.97 6484.10,3503.40 6511.81,3506.32 6528.22,3506.01 6536.64,3470.68 6543.15,3472.70 6534.71,3505.12 6549.77,3503.03 6570.37,3495.76 6589.92,3478.17 6596.40,3455.66 6598.67,3438.40 6601.90,3426.28 6609.69,3426.99 6613.51,3434.46 6624.60,3433.06 6636.59,3421.75 6643.49,3414.94 6642.18,3408.30 6638.47,3395.45 6621.66,3374.25 6618.06,3366.56 6619.61,3357.05 6631.67,3355.10 6648.25,3363.41 6678.17,3392.13 6679.51,3417.93 6691.24,3444.40 6704.68,3469.98 6706.75,3488.03 6703.77,3513.05 6707.37,3520.74 6722.34,3535.96 6754.70,3556.87 6776.71,3578.84 6798.95,3619.29 6790.00,3631.00 6794.33,3640.74 6807.39,3653.38 6836.78,3685.30 6851.09,3711.80 6914.56,3757.95 6932.47,3807.61 6953.80,3837.15 6974.91,3856.58 6982.05,3850.62 6988.36,3866.17 7032.26,3882.57 7089.89,3950.51 7109.37,3994.23 7145.57,4034.97 7147.12,4052.73 7167.69,4071.26 7181.39,4071.42 7181.21,4084.32 7176.51,4087.47 7181.66,4122.59 7190.64,4142.04 7187.98,4164.17 7199.27,4181.28 7208.67,4184.63 7217.06,4205.93 7222.95,4224.83 7672.22,4375.92 7693.67,4378.03 7702.65,4369.07 7708.68,4369.81 7711.86,4374.64 7721.62,4369.78 7726.35,4376.68 7732.81,4376.95 7737.94,4379.92 7735.71,4392.32 7731.10,4402.69 8067.58,4499.58 8086.10,4492.70 8094.97,4481.99 8103.22,4452.02 8109.82,4452.83 8114.16,4456.77 8124.73,4442.27 8135.91,4405.58 8149.45,4396.23 8163.36,4398.87 8186.78,4383.54 8195.10,4358.34 8243.86,4331.87 8272.11,4296.73 8298.72,4257.42 8323.51,4240.69 8341.12,4209.29 8382.28,4164.78 8406.55,4169.15 8408.28,4185.88 8428.11,4203.77 8438.36,4198.41 8443.89,4187.83 8468.15,4175.61 8488.36,4174.54 8492.62,4162.33 8499.66,4159.38 8512.18,4165.86 8531.47,4156.77 8534.58,4121.25 8562.22,4098.67 8575.99,4071.92 8577.50,4015.21 8587.30,4007.01 8593.25,3983.82 8613.27,3947.95 8631.34,3917.68 8665.59,3912.01 8678.32,3890.13 8697.84,3884.18 8708.34,3889.88 8713.78,3883.66 8705.26,3874.15 8714.16,3861.27 8727.67,3853.97 8749.24,3824.62 8764.50,3812.23 8768.08,3786.42 8787.98,3769.89 8790.07,3752.22 8799.48,3736.66 8811.73,3742.88 8815.76,3720.65 8833.82,3713.46 8839.53,3698.59 8859.39,3684.42 8859.15,3671.77 8865.76,3667.31 8877.33,3669.93 8873.98,3660.28 8868.34,3644.80 8870.93,3639.15 8915.40,3598.65 8927.00,3600.60 8942.90,3615.69 8945.94,3612.73 8939.87,3591.86 8971.03,3561.76 8993.62,3567.60 9010.81,3552.65 9039.87,3541.67 9034.78,3524.92 9039.43,3516.89 9036.39,3503.44 9044.79,3471.32 9063.27,3473.03 9079.58,3457.85 9093.69,3458.01 9105.38,3461.92 9116.77,3458.74 9112.98,3446.49 9120.69,3437.25 9134.32,3438.57 9159.07,3428.97 9176.57,3417.52 9182.90,3406.00 9192.90,3405.91 9231.08,3414.85 9248.87,3404.88 9262.14,3374.32 9286.15,3370.22 9291.73,3366.25 9290.15,3352.76 9299.67,3353.88 9307.74,3348.02 9315.45,3352.24 9324.65,3348.80 9350.30,3356.86 9355.48,3350.41 9356.91,3338.97 9370.37,3320.62 9381.43,3323.86 9394.09,3332.64 9402.14,3326.85 9410.69,3330.55 9419.87,3328.16 9425.27,3317.47 9434.03,3308.66 9449.62,3318.14 9462.21,3331.04 9476.69,3314.58 9495.23,3303.36 9526.87,3285.77 9533.05,3288.69 9541.59,3284.39 9556.52,3293.17 9588.44,3282.20 9601.98,3272.88 9610.66,3265.56 9621.64,3265.20 9633.25,3254.87 9647.23,3251.57 9665.35,3253.81 9684.41,3259.76 9689.96,3264.24 9696.91,3268.11 9715.57,3268.06 9729.07,3272.13 9745.47,3269.80 9777.37,3275.09 9793.27,3280.64 9811.35,3280.21 9828.45,3276.27 9843.20,3278.09 9857.01,3272.43 9869.21,3282.08 9877.43,3267.36 9887.05,3261.61 9907.00,3272.92 9929.47,3277.21 9945.26,3264.92 9950.22,3739.00 9904.00,3766.50 9901.47,3772.78 9903.09,3785.25 9892.79,3784.15 9892.48,3795.62 9883.84,3795.27 9859.90,3806.79 9851.13,3809.15 9843.47,3819.73 9847.03,3828.78 9829.96,3848.35 9822.54,3862.61 9820.87,3878.85 9799.57,3896.39 9794.83,3912.50 9785.81,3916.44 9777.73,3932.85 9787.47,3959.07 9768.97,3985.35 9763.14,4008.89 9735.17,4043.59 9718.93,4048.97 9693.29,4070.30 9680.85,4089.44 9656.74,4105.37 9810.49,4252.88 9815.54,4264.42 9759.89,4368.07 9793.48,4431.11 9823.19,4455.76 9887.69,4430.42 9893.47,4441.84 9947.85,4615.56 9960.33,4620.23 9972.02,4626.37 9980.86,4630.66 9984.09,4637.70 9982.13,4643.62 9978.34,4647.56 9972.13,4648.70 9964.40,4646.01 9959.46,4635.34 9955.77,4631.12 9951.36,4629.07 9937.66,4730.83"/>
    <poly id="1604" type="boundary.administrative" color="255,26,26" fill="0" layer="0.00" shape="5203.43,4466.08 5039.80,4339.34 5035.21,4340.35 4890.82,4444.97 4883.02,4449.60 4877.41,4439.77 4823.28,4330.85 4819.86,4326.65 4717.45,4275.81 4644.39,4243.58 4625.29,4233.52 4488.05,4153.73 4482.28,4151.51 4436.14,4152.69 4423.38,4151.62 4383.40,4145.27 4320.13,4125.95 4292.80,4121.66 4285.11,4118.79"/>
    <poly id="1605" type="boundary.administrative" color="255,26,26" fill="0" layer="0.00" shape="8354.51,7351.74 8371.19,7334.48 8378.42,7327.27 8397.80,7303.76 8402.72,7293.51 8410.03,7274.00 8421.02,7263.35 8428.76,7261.23 8439.60,7260.36 8442.73,7258.26 8446.70,7245.72 8456.12,7199.20 8463.16,7168.24 8480.37,7097.98 8485.21,7092.28 8505.07,7074.43 8523.58,7060.02 8533.51,7053.74 8548.56,7046.09 8626.50,7019.03 8649.06,7014.18 8696.91,7011.26 8703.28,7009.41 8718.94,6997.64 8740.72,6993.19 8776.73,6969.88 8782.01,6967.28 8788.83,6965.48 8795.84,6965.08 8810.57,6967.91 8849.76,6944.97 8855.76,6942.50 8881.24,6945.40 8892.12,6945.75 8899.89,6944.06 8924.99,6932.89 8947.33,6927.22 8963.99,6924.90 8975.90,6922.16 8978.86,6922.40"/>
    <poly id="1606" type="boundary.administrative" color="255,26,26" fill="0" layer="0.00" shape="6018.35,6385.07 6061.49,6385.52 6071.78,6389.47 6079.16,6386.03 6089.51,6390.12 6100.52,6390.43 6116.76,6397.36 6117.71,6379.82 6140.97,6393.82 6151.93,6390.65 6160.45,6388.77 6169.76,6375.90 6175.26,6370.37 6184.44,6360.68 6187.34,6354.18 6196.10,6343.32 6208.85,6340.69 6214.40,6334.95 6320.34,6213.27 6321.56,6199.01 6323.06,6194.98 6339.62,6181.14 6382.25,6143.23 6423.40,6103.99 6437.65,6091.97 6452.84,6081.70 6458.37,6078.90 6472.29,6071.86 6478.20,6070.13 6570.36,6087.51 6577.98,6087.28 6587.07,6091.72 6595.08,6090.70 6600.10,6091.35 6610.89,6095.35 6627.36,6098.34 6636.48,6101.04 6654.85,6114.21 6671.80,6116.68 6675.57,6120.27 6692.15,6127.84 6694.40,6138.15 6696.00,6141.99 6701.01,6148.58 6709.35,6152.45 6746.02,6159.30 6755.76,6160.29 6784.40,6159.73 6793.28,6162.35 6804.72,6167.48 6807.46,6169.80 6807.19,6170.93 6836.98,6192.96 6848.22,6202.98 6868.40,6205.60 6886.31,6206.60 6899.06,6205.66 6901.00,6206.55 6924.45,6206.45 6933.42,6207.82 6945.56,6211.87 6963.82,6213.04 6985.01,6212.44 7031.15,6213.26 7048.93,6211.77 7055.79,6212.65 7084.72,6209.19 7099.27,6209.33 7113.26,6212.70 7179.12,6236.30 7242.24,6256.42 7245.58,6254.38 7267.07,6219.88 7269.50,6217.89 7289.67,6213.10 7332.25,6220.02 7334.93,6219.60 7341.30,6214.86 7388.95,6170.93 7454.72,6113.51 7470.49,6098.51 7473.30,6094.50 7486.31,6062.55 7488.94,6058.73 7491.82,6057.19 7556.07,6039.70 7572.94,6036.26 7585.29,6035.49 7602.60,6041.01 7621.84,6043.62 7639.54,6050.18 7658.95,6061.35 7675.32,6065.45 7684.23,6068.36 7718.76,6076.30 7727.03,6080.06 7744.04,6087.00 7764.30,6105.32 7792.10,6121.48 7816.33,6140.19 7830.06,6152.97 7833.51,6158.20 7854.93,6176.46 7868.91,6192.21 7887.19,6216.33 7902.69,6233.76 7944.69,6274.11 7954.74,6287.65 7964.02,6303.19 7982.23,6339.76 7994.61,6355.23 8000.68,6360.98 8016.57,6372.30 8021.22,6377.43 8025.29,6387.09 8031.12,6412.32 8035.57,6424.69 8042.31,6437.44 8050.75,6447.39 8102.79,6494.57 8126.63,6508.52 8135.44,6507.08 8143.58,6508.15 8156.54,6515.45 8169.52,6518.68 8174.91,6522.26 8186.96,6535.36 8197.02,6543.30 8208.06,6548.93 8218.22,6551.78 8229.22,6552.93 8234.21,6552.26 8255.33,6541.97 8258.10,6520.92 8262.33,6516.91 8274.92,6515.98 8284.93,6518.43 8320.58,6533.56 8337.64,6538.20 8357.83,6541.30 8369.16,6540.24 8374.36,6537.84 8382.73,6530.06 8425.62,6468.30 8429.22,6465.41 8449.75,6454.16 8457.63,6452.05 8472.49,6452.08 8489.24,6455.69 8496.77,6458.97 8502.32,6462.64 8510.74,6471.05 8517.77,6480.72 8527.19,6497.68 8529.55,6504.29 8534.18,6519.87 8540.35,6521.38 8557.22,6515.51 8566.16,6508.00 8573.72,6498.82 8592.76,6466.83 8603.13,6451.57 8613.78,6439.28 8622.52,6431.82 8632.17,6425.57 8649.58,6417.97 8657.89,6412.55 8666.64,6403.94 8677.46,6389.12 8687.33,6360.30 8692.14,6353.00 8698.32,6346.94 8705.61,6342.25 8713.74,6339.04 8727.96,6337.34 8735.77,6339.62 8741.99,6344.42 8755.06,6359.85 8761.36,6364.56 8769.56,6366.73 8796.91,6369.09 8813.42,6366.92 8835.55,6371.53 8873.66,6383.87 8885.99,6383.59"/>
    <poly id="1607" type="boundary.administrative" color="255,26,26" fill="0" layer="0.00" shape="9387.77,7330.94 9313.49,7273.93 9306.99,7267.61 9301.57,7257.47 9296.60,7242.22 9293.10,7235.37 8983.32,6925.11 8978.86,6922.40"/>
    <poly id="1608" type="boundary.administrative" color="255,26,26" fill="0" layer="0.00" shape="6018.35,6385.07 5992.16,6342.18 5893.72,6080.44 5891.67,6070.00 5889.79,5807.51 5881.62,5654.42 5877.22,5521.41 5874.51,5380.86 5867.15,5126.39 5867.61,5110.85 5869.43,5097.78 5933.31,4823.37 5934.78,4813.86 5934.41,4808.41 5930.66,4791.80 5889.60,4560.47 5887.49,4554.77 5884.45,4552.02 5585.76,4365.58 5580.26,4363.33 5576.92,4363.47 5203.43,4466.08"/>
    <poly id="1609" type="boundary.administrative" color="255,26,26" fill="0" layer="0.00" shape="5203.43,4466.08 5203.69,4437.43 5209.44,4413.87 5215.40,4398.78 5222.75,4384.31 5231.25,4370.59 5244.74,4354.38 5260.39,4340.78 5302.88,4310.38 5312.73,4302.15 5329.11,4283.00 5358.76,4241.59 5362.24,4238.10 5370.37,4235.45 5384.33,4218.24 5391.66,4211.31 5413.96,4194.84 5421.16,4190.80 5431.54,4187.68 5434.72,4185.60 5440.47,4170.58 5454.19,4145.32 5475.42,4114.04 5479.21,4093.21 5493.70,4083.63 5496.05,4080.75 5501.81,4069.34 5506.36,4063.41 5547.87,4036.69 5559.06,4024.48 5573.42,4011.10 5580.44,4001.58 5586.11,3985.06 5589.19,3942.42 5588.75,3930.97 5589.48,3927.86 5599.31,3913.90 5604.15,3898.06 5607.28,3894.65 5625.23,3881.34 5649.78,3850.38 5654.78,3845.61 5674.19,3833.06 5689.02,3815.44 5728.53,3784.94 5744.90,3773.99 5763.53,3763.58 5773.37,3761.15 5787.14,3763.21 5811.22,3761.83 5818.90,3762.45 5829.45,3760.82 5849.99,3755.41 5879.63,3754.33 5886.71,3752.24 5893.96,3744.40 5897.01,3742.67 5912.95,3738.22 5917.35,3731.97 5918.23,3718.24 5920.49,3705.01 5923.94,3696.27 5933.04,3686.99 5936.48,3679.84 5939.16,3667.79 5947.75,3650.94 5952.68,3644.88 5962.92,3637.47 5975.85,3630.93 5988.97,3615.35 6015.09,3610.07"/>
    <poly id="1610" type="boundary.administrative" color="255,26,26" fill="0" layer="0.00" shape="4945.05,7414.99 4947.74,7341.03 4946.73,7334.34 4927.19,7272.69 4921.05,7238.19 4925.39,7211.40 4927.30,7206.09 4945.58,7181.69 4946.07,7179.59 4944.73,7169.88 4947.20,7163.57 4956.70,7151.25 4980.61,7125.87 4990.30,7110.95 4992.09,7106.21 4992.79,7097.91 5026.09,7030.80 5035.89,7014.54 5071.78,6972.79 5121.53,6929.35 5138.69,6910.87 5148.10,6902.58 5151.26,6902.23 5189.31,6906.18 5201.15,6905.92 5215.29,6901.44 5218.69,6901.39 5232.40,6904.88 5237.90,6904.58 5248.72,6901.13 5320.03,6860.28 5326.69,6855.38 5327.20,6853.05 5311.48,6818.27 5296.54,6776.23 5297.34,6773.50 5325.16,6759.58 5360.75,6743.32 5413.26,6709.93 5417.86,6709.18 5465.59,6708.78 5479.85,6709.57 5513.81,6714.29 5593.15,6705.01 5604.44,6701.11 5689.66,6663.07 5692.89,6659.56 5720.52,6616.31 5722.72,6615.14 5792.83,6621.07 5892.71,6640.95 5894.71,6640.15 5900.98,6629.69 5914.32,6622.04 5917.60,6618.34 5928.21,6600.55 5934.44,6592.42 5937.45,6590.34 5962.66,6579.25 5977.83,6569.86 5995.54,6553.90 6014.72,6530.26 6017.67,6522.82 6016.93,6515.62 6013.93,6506.35 6013.32,6501.49 6014.30,6452.02 6011.06,6441.14 6011.14,6432.45 6018.35,6385.07"/>
    <poly id="1611" type="boundary.administrative" color="255,26,26" fill="0" layer="0.00" shape="8978.86,6922.40 8967.24,6906.91 8945.42,6880.21 8938.71,6854.29 8937.89,6837.10 8938.82,6812.83 8933.94,6780.94 8934.15,6734.01 8936.87,6717.45 8944.95,6699.38 8943.31,6695.44 8933.64,6685.18 8916.25,6669.91 8913.48,6666.09 8913.49,6661.67 8917.60,6653.33 8919.62,6632.76 8918.57,6630.19 8912.64,6623.54 8896.44,6591.35 8890.22,6581.08 8871.92,6551.28 8855.83,6515.02 8846.99,6499.68 8833.95,6485.72 8829.45,6478.35 8827.80,6473.28 8828.65,6468.88 8831.31,6464.54 8859.14,6431.61 8877.62,6399.42 8885.99,6383.59"/>
    <poly id="1612" type="boundary.administrative" color="255,26,26" fill="0" layer="0.00" shape="6130.24,3329.68 6127.69,3341.59 6126.97,3344.38 6129.27,3351.57 6134.84,3360.41 6141.21,3370.14 6145.31,3374.53 6148.89,3381.17 6149.51,3385.62 6148.74,3389.61 6145.43,3406.74 6146.73,3417.05 6145.77,3419.57 6141.62,3424.45 6137.27,3434.36 6135.67,3444.90 6136.17,3450.34 6138.29,3457.69 6152.56,3484.23 6155.56,3496.15 6157.60,3528.02 6156.76,3533.22 6154.72,3537.99 6149.45,3543.75 6094.13,3588.15 6078.77,3596.69 6074.01,3597.75 6056.61,3596.81 6050.59,3598.16 6035.12,3606.35 6023.05,3610.80 6017.10,3611.57 6015.09,3610.07"/>
    <poly id="1613" type="boundary.administrative" color="255,26,26" fill="0" layer="0.00" shape="5335.92,2968.95 5336.08,2953.98 5333.06,2937.44 5333.54,2924.05 5335.77,2916.66 5340.64,2907.77 5340.68,2903.43 5335.32,2886.57 5335.86,2874.75 5330.77,2866.99 5327.71,2855.70 5316.26,2845.67 5307.70,2828.12 5295.50,2807.78 5292.88,2799.76 5291.97,2754.18 5287.67,2738.10 5277.02,2722.28 5272.52,2719.37 5254.64,2698.77 5235.10,2681.78 5211.10,2667.42 5202.48,2659.92 5196.79,2652.09 5183.55,2628.51 5181.82,2622.93 5179.45,2617.46 5177.16,2602.90 5173.68,2596.14 5142.62,2561.70 5130.08,2550.47 5124.76,2543.84 5116.98,2523.60 5107.71,2511.58 5096.52,2498.57 5080.82,2492.19 5073.17,2485.56 5065.69,2468.22 5063.28,2465.63 5059.23,2463.33 5051.31,2470.27 5042.67,2476.87 4992.40,2402.32 4978.60,2413.31 4929.17,2452.87 4908.38,2469.18 4899.55,2475.57 4877.21,2493.22 4873.32,2497.33 4822.91,2460.10 4812.38,2465.94 4800.07,2452.29 4788.97,2434.12 4782.56,2433.70 4772.52,2410.85 4767.08,2398.80 4760.69,2387.91 4770.01,2378.99 4763.37,2371.20 4691.16,2287.94 4680.71,2277.57 4675.97,2282.49 4627.43,2247.10 4559.50,2190.02"/>
    <poly id="1614" type="boundary.administrative" color="255,26,26" fill="0" layer="0.00" shape="8885.99,6383.59 8890.14,6379.91 8890.51,6372.32 8891.25,6356.90 8851.86,6264.80 8855.32,6237.42 8876.89,6228.25 8907.60,6234.50 8942.43,6253.97 8967.17,6256.78 8990.92,6247.42 9008.95,6221.48 9005.68,6193.71 8983.45,6162.29 8979.85,6150.33 8987.67,6122.61 9001.90,6098.30 9011.44,6091.83 9063.10,6092.02 9063.05,6080.66 9046.58,6061.01 9016.56,6041.59 9010.25,6028.55 9017.18,6011.38 9037.00,5991.41 9070.55,5973.39 9105.08,5972.78 9146.53,5998.28 9164.80,6002.48 9196.07,5961.48 9229.33,5956.16 9248.87,5937.98 9251.66,5918.51 9243.75,5907.35 9212.29,5902.47 9195.09,5884.63 9189.38,5846.63 9199.31,5817.85 9217.45,5787.97 9241.45,5781.65 9314.34,5806.34 9329.65,5795.48 9340.55,5767.94 9328.24,5740.09 9291.32,5684.07 9290.26,5654.87 9303.54,5629.75 9372.68,5575.64 9416.67,5554.98 9467.18,5506.87 9474.15,5487.62 9475.27,5466.61 9431.19,5400.49 9436.08,5381.81 9454.71,5356.76 9493.62,5323.28 9579.05,5263.99 9608.63,5250.22 9636.94,5243.62 9661.63,5230.06 9677.78,5212.00 9698.17,5176.49 9772.72,5166.06 9797.53,5151.41 9849.26,5092.74 9874.53,5053.55 9888.83,5041.24 9911.06,5035.79 9956.90,5067.68"/>
    <poly id="1615" type="boundary.administrative" color="255,26,26" fill="0" layer="0.00" shape="2280.78,4327.74 2316.96,4341.69 2341.72,4365.13 2358.26,4390.90 2379.57,4399.25 2398.26,4426.08 2401.71,4446.42 2413.95,4456.97 2432.46,4459.37 2440.48,4467.49 2463.32,4463.04 2474.55,4475.57 2489.32,4476.81 2502.99,4485.96 2535.74,4493.65 2583.16,4477.61 2592.68,4482.00 2650.54,4563.48 2654.62,4575.23 2687.04,4597.74 2694.85,4651.85 2702.16,4662.20 2741.06,4690.51 2744.87,4700.95 2757.21,4706.55 2765.69,4726.80 2775.76,4737.49 2830.01,4744.57 2856.23,4763.96 2858.72,4774.67 2851.80,4804.08 2875.68,4831.39 2875.27,4877.17 2895.41,4880.18 2921.29,4902.60 2944.79,4907.58 2951.02,4931.98 2973.74,4945.42 2986.75,4967.63 3015.30,4976.04 3038.42,4991.59 3088.18,5005.40 3091.96,5019.32 3071.32,5053.37 3070.77,5070.65 3099.93,5087.43 3110.39,5101.56 3131.32,5155.87 3131.17,5173.42 3144.82,5179.19 3156.00,5198.49 3157.42,5222.09 3165.65,5192.57 3144.13,5157.38 3150.69,5124.60 3140.99,5089.31 3142.48,5060.76 3151.92,5020.75 3144.35,4966.40 3155.31,4908.64 3172.86,4755.98 3221.00,4734.01 3234.13,4723.17 3242.92,4707.63 3269.73,4607.42 3342.53,4554.54 3519.42,4440.77 3513.35,4266.86 3560.32,4117.02 3579.48,3992.05 3584.36,3983.79 3595.74,3975.39 3714.08,3948.44 3782.13,3914.12 3806.20,3909.62 3886.02,3912.85 3918.75,3922.78 4031.45,3977.85 4162.36,4096.74 4285.11,4118.79"/>
    <poly id="1616" type="boundary.administrative" color="255,26,26" fill="0" layer="0.00" shape="2201.72,850.22 2203.01,860.85 2198.84,875.75 2215.04,902.82 2230.06,944.05 2240.18,963.86 2250.04,990.66 2255.10,1030.26 2269.15,1049.91 2276.18,1062.26 2278.23,1069.08 2286.26,1118.37 2280.32,1151.08 2262.73,1195.26 2241.59,1228.55 2222.76,1250.29 2216.79,1262.65 2199.01,1278.92 2182.14,1301.62 2172.72,1338.44 2176.86,1365.74 2183.67,1384.69 2191.12,1399.08 2205.93,1422.62 2226.76,1467.69 2242.88,1501.08 2287.91,1547.23 2306.65,1558.69 2312.06,1564.77 2342.04,1606.45 2350.67,1613.00 2352.56,1616.61 2348.84,1627.32 2347.44,1629.89 2338.00,1637.34 2335.45,1642.11 2325.03,1683.22 2321.09,1696.11 2311.95,1711.99 2309.25,1724.21 2304.44,1760.52 2303.83,1764.36 2293.35,1767.83 2279.84,1787.63 2267.48,1802.24 2259.96,1818.72 2228.01,1907.99 2194.19,2026.41 2187.78,2039.37 2154.14,2136.13 2131.99,2202.12 2129.06,2206.46 2024.82,2359.75 1885.83,2278.18 1845.53,2254.82 1841.85,2249.25 1748.92,2194.94 1725.71,2168.12 1701.98,2138.44 1696.87,2133.36 1689.82,2129.19 1670.85,2118.71 1656.65,2118.31 1653.02,2116.64 1621.70,2089.75 1604.52,2078.62 1567.71,2058.75 1528.43,2035.35 1515.50,2030.72 1468.57,2018.92 1448.53,2015.34 1440.92,2012.61 1435.84,2012.82 1423.55,2014.65 1394.48,2011.20 1329.09,1960.35 1316.62,1953.74 1196.88,1903.34 1161.36,1884.23 1134.96,1874.66 1125.08,1874.36 1120.49,1876.93 1105.93,1892.18 1069.62,1901.90 1046.40,1902.10 1037.64,1904.34 1031.65,1907.36 993.42,1929.49 979.70,1922.65 944.70,1931.29 943.57,1934.36 1014.46,2079.00 1018.75,2091.63 1035.47,2258.45 1035.66,2275.93 1034.17,2293.13 1011.18,2428.30 997.77,2452.44 996.78,2458.11 997.21,2468.57 1004.94,2517.37 1013.37,2544.06 1026.12,2578.97 1039.78,2614.02 1045.98,2638.09 1052.86,2673.27 1061.50,2710.91 1066.58,2750.84 1074.62,2783.89 1076.69,2796.28 1071.81,2819.61 1060.06,2857.59 1057.15,2866.17"/>
    <poly id="1617" type="boundary.administrative" color="255,26,26" fill="0" layer="0.00" shape="1614.68,459.48 1610.10,461.32 1605.27,470.67 1614.34,489.78 1619.21,489.67 1629.45,487.15 1638.08,493.53 1663.73,508.21 1666.66,510.87 1668.09,514.91 1674.84,516.41 1684.42,525.62 1718.94,548.10 1739.46,560.31 1765.90,591.64 1780.67,612.47 1786.03,617.28 1790.40,619.80 1802.98,622.59 1807.10,624.78 1820.56,635.75 1834.35,643.56 1850.51,648.99 1864.39,650.55 1896.65,651.30 1907.35,653.35 1926.84,683.47 1980.00,684.26 1991.27,687.69 2012.96,691.80 2025.41,695.46 2037.44,700.36 2050.58,707.39 2088.66,731.35 2102.40,736.98 2156.16,743.69 2179.83,748.13 2202.52,767.26 2218.38,780.03 2220.34,782.80 2213.80,787.51 2208.38,795.56 2199.11,819.01 2201.72,850.22"/>
    <poly id="1618" type="boundary.administrative" color="255,26,26" fill="0" layer="0.00" shape="2201.72,850.22 2203.71,849.22 2215.59,847.12 2236.29,846.16 2242.77,847.27 2245.54,846.39 2246.06,847.61 2256.65,847.88 2267.16,849.82 2293.12,856.94 2331.10,863.49 2335.31,865.00 2330.33,879.73 2317.75,909.03 2313.27,923.99 2312.06,939.45 2346.61,931.13 2352.07,932.07 2353.81,930.98 2357.42,931.90 2396.04,932.27 2396.26,939.17 2368.20,977.77 2368.66,987.57 2371.18,993.65 2399.30,1039.56 2401.38,1041.71 2401.96,1043.12 2415.54,1063.16 2425.62,1072.72 2539.81,1149.33 2561.73,1167.75 2630.49,1229.06 2643.98,1239.28 2661.74,1262.17 2718.97,1277.11 2800.50,1316.00 2816.24,1335.17 2834.80,1326.68 2898.50,1343.10 2919.61,1350.23 2942.73,1375.03 2962.73,1381.70 2980.00,1373.66 2989.42,1375.29 2999.66,1374.14 3038.57,1359.52 3056.35,1351.03 3089.54,1329.82 3145.16,1328.57 3185.92,1329.95 3618.24,1444.16 3644.10,1452.21 3669.34,1462.68 3696.21,1468.41 3702.28,1471.09 3715.14,1479.88 3732.16,1493.99 3739.88,1499.21 3745.91,1501.66 3750.93,1501.20 3767.67,1495.46 3773.17,1492.54 3781.68,1484.69 3804.67,1457.16 3839.19,1474.71 3850.22,1471.12 3864.42,1431.41 3866.50,1428.95 3868.75,1428.49 3887.16,1430.84 3906.24,1438.01 3914.58,1439.22 3917.44,1436.50 3949.66,1437.91 3952.72,1445.21 3960.26,1449.41 3979.64,1448.62 3992.69,1433.29 4021.70,1406.26 4022.47,1394.48"/>
    <poly id="1619" type="boundary.administrative" color="255,26,26" fill="0" layer="0.00" shape="2280.78,4327.74 2272.56,4322.20 2253.05,4308.01 2249.23,4304.47 2236.66,4286.22 2225.00,4274.92 2212.51,4265.45 2188.32,4252.15 2163.76,4252.75 2160.20,4251.40 2154.08,4245.83 2149.85,4238.56 2140.90,4208.70 2137.39,4201.75 2134.66,4199.19 2130.20,4197.70 2118.82,4197.67 2102.73,4200.35 2076.57,4209.54 2065.91,4211.38 2059.29,4209.64 2053.90,4204.23 2044.02,4190.19 2042.62,4186.94 2041.71,4179.46 2042.06,4159.49 2040.19,4147.33 2036.74,4133.96 2033.78,4129.18 2028.01,4124.78 2017.22,4118.81 2012.81,4114.70 1998.19,4093.35 1995.72,4087.34 1992.75,4074.64 1990.06,4068.96 1985.09,4064.40 1979.60,4062.46 1973.86,4062.49 1948.83,4072.47 1944.24,4070.19 1939.80,4065.70 1938.34,4062.23 1938.87,4061.17 1941.72,4060.21 1953.28,4056.04 1955.02,4016.14 1952.71,4003.39 1950.37,3997.01 1943.63,3984.80 1937.41,3976.90 1937.57,3958.20 1935.00,3946.12 1923.13,3932.65 1913.15,3919.26 1908.13,3914.82 1888.72,3907.95 1881.63,3902.83 1867.38,3889.15 1863.85,3867.42 1856.40,3851.44 1855.05,3845.96 1855.02,3836.31 1857.78,3825.72 1873.66,3786.00 1879.24,3756.71 1880.80,3737.05 1880.02,3721.53 1873.14,3683.26 1880.98,3653.39 1898.35,3620.70 1900.06,3615.71 1901.40,3602.12 1900.99,3597.06 1901.28,3595.34 1903.69,3579.44 1905.71,3573.07 1916.11,3553.82 1924.34,3530.94 1924.49,3523.73 1920.16,3521.38 1920.56,3511.65 1900.75,3459.45 1896.22,3442.79 1890.66,3411.82 1870.96,3383.09 1863.90,3369.38 1846.90,3353.93 1837.47,3334.33 1835.08,3333.21 1831.69,3333.73 1822.89,3338.02 1819.83,3338.48 1818.25,3337.64 1806.26,3319.16 1800.65,3307.63 1798.30,3300.32 1796.89,3284.71 1802.63,3276.76 1797.82,3265.34 1804.90,3226.32 1808.00,3218.84 1808.70,3213.26 1811.76,3207.08 1811.30,3201.60 1809.38,3194.36 1776.56,3198.78 1729.10,3192.99 1707.79,3195.32 1696.05,3194.87 1669.96,3191.01 1635.91,3183.17 1602.95,3173.26 1581.87,3163.77 1562.33,3150.89 1541.13,3139.91 1530.01,3131.84 1507.90,3109.04 1485.18,3089.25 1480.13,3083.70 1474.36,3075.12 1466.16,3055.31 1461.35,3034.73 1458.10,3012.58 1458.02,3011.60 1456.74,2995.91 1456.51,2961.38 1455.33,2955.67 1452.81,2951.00 1437.60,2952.04 1428.74,2946.08 1407.23,2938.52 1356.63,2890.07 1335.12,2875.92 1315.44,2858.28 1307.59,2855.55 1301.80,2852.24 1293.60,2850.42 1278.17,2841.34 1275.26,2841.02 1270.81,2845.16 1269.24,2850.03 1268.56,2859.18 1271.87,2891.92 1271.59,2905.76 1269.78,2911.85 1266.50,2915.27 1240.25,2919.98 1229.49,2918.12 1211.26,2907.85 1197.20,2903.11 1185.04,2901.56 1147.07,2916.18 1130.70,2903.02 1110.03,2902.21 1088.44,2899.52 1076.85,2894.29 1070.07,2887.92 1057.15,2866.17"/>
    <poly id="1620" type="boundary.administrative" color="255,26,26" fill="0" layer="0.00" shape="1057.15,2866.17 1046.62,2875.80 1039.53,2878.39 1023.30,2886.62 1014.43,2889.77 977.10,2898.18 931.16,2915.34 923.22,2921.17 906.62,2940.50 895.49,2949.94 861.58,2972.03 848.29,2978.30 832.78,2982.79 828.18,2983.23 820.96,2981.70 789.15,2969.33 787.69,2966.03 762.78,2817.73 737.73,2732.16 725.79,2620.66 668.96,2334.74 663.31,2255.81 642.46,2155.65 641.18,2153.91 637.93,2153.19 590.51,2153.74 585.30,2155.48 517.26,2198.63 516.59,2222.89 512.49,2226.76 469.57,2226.80 464.80,2242.44 461.22,2250.01 457.10,2254.81 437.74,2264.52 430.87,2273.94 427.47,2289.49 425.25,2299.14 418.96,2309.08 411.46,2313.49 409.13,2316.24 399.36,2337.09 399.74,2340.09 404.73,2351.94 397.63,2352.86 393.28,2352.19 388.13,2348.30 378.99,2338.74 373.62,2335.36 366.80,2334.44 363.41,2335.59 342.27,2349.80 332.78,2354.76 327.72,2356.24 306.49,2360.39 293.27,2373.81 289.07,2373.81 249.43,2370.84 232.76,2401.49 230.96,2403.37 226.31,2405.15 185.83,2414.10 184.50,2416.29 180.45,2435.51 177.85,2437.04 160.84,2441.31 147.73,2441.51 140.98,2444.53 132.51,2451.70 129.80,2455.43 113.13,2489.60 83.42,2510.26 73.09,2523.74 64.76,2529.11 35.86,2515.94"/>
    <poly id="1621" type="boundary.administrative" color="255,26,26" fill="0" layer="0.00" shape="4285.11,4118.79 4299.68,4063.80 4308.36,3983.07 4333.86,3999.26 4389.56,3894.20 4397.96,3894.05 4401.52,3901.19 4465.35,3894.48 4482.04,3795.74 4485.59,3725.15 4468.26,3715.08 4445.77,3692.82 4391.02,3624.62 4359.32,3603.85 4393.06,3571.19 4417.66,3561.63 4427.97,3564.72 4452.17,3548.61 4434.14,3522.63 4442.56,3512.18 4448.45,3487.32 4466.33,3463.41 4476.66,3477.16 4497.62,3478.14 4507.13,3506.53 4518.93,3523.12 4536.69,3533.07 4546.81,3532.44 4567.76,3518.60 4561.01,3507.78 4591.94,3458.98 4591.13,3435.61 4632.37,3373.34 4640.67,3342.73 4658.27,3318.39 4659.47,3299.99 4646.54,3266.00 4646.06,3246.82 4643.65,3241.80 4633.20,3242.06 4627.04,3237.09 4615.58,3218.52 4612.63,3218.75 4540.30,3163.92 4525.90,3195.65 4493.31,3172.73 4481.08,3167.18 4438.66,3166.22 4453.07,3145.10 4396.43,3108.73 4375.21,3131.96 4360.29,3124.81 4345.64,3111.45 4324.82,3080.58 4308.70,3067.41 4300.14,3041.24 4307.74,3037.33 4308.04,3030.81 4287.51,3038.98 4304.76,3083.58 4282.86,3096.36 4272.14,3090.04 4222.31,3098.64 4191.70,3082.20 4180.49,3077.47 4174.78,3067.07 4160.93,3057.28 4147.00,3054.39 4127.61,3036.09 4153.48,2945.01 4172.03,2910.09 4186.65,2898.52 4202.79,2903.84 4225.15,2925.96 4267.53,2928.09 4267.49,2913.23 4226.50,2851.54 4196.07,2818.40 4154.06,2848.77 4129.84,2814.48 4101.32,2787.65 4045.95,2853.54 3994.61,2871.02 3984.81,2859.31 3986.79,2796.14 3952.07,2795.25 3958.84,2765.23 3955.16,2761.48 3937.06,2759.19 3911.98,2768.87 3905.68,2763.90 3885.26,2764.14 3874.46,2759.10 3872.10,2743.49 3852.90,2754.90 3857.75,2736.27 3849.33,2711.08 3851.27,2686.71 3874.52,2654.33 3875.35,2646.03 3864.69,2626.76 3830.78,2597.73 3810.79,2587.52 3777.84,2580.32 3762.88,2571.09 3738.42,2593.14 3693.81,2609.26 3666.41,2605.36 3648.64,2605.94 3700.29,2511.79 3690.69,2485.35 3721.92,2454.77 3723.72,2439.42 3747.37,2419.56 3754.31,2406.85 3727.95,2374.88 3699.26,2324.73 3674.61,2266.46 3651.64,2234.37 3657.86,2169.85 3670.75,2146.47 3673.95,2123.89 3673.01,2121.03 3686.97,2083.83 3752.35,1960.96 3770.31,1910.84 3769.16,1904.03 3942.65,1880.87 4021.82,1771.52 4031.39,1734.35"/>