<?xml version="1.0" encoding="UTF-8"?>

    <!--
        Monaco SUMO Traffic (MoST) Scenario
        Copyright (C) 2018
        Lara CODECA

        This program is free software: you can redistribute it and/or modify
        it under the terms of the GNU General Public License as published by
        the Free Software Foundation, either version 3 of the License, or
        (at your option) any later version.

        This program is distributed in the hope that it will be useful,
        but WITHOUT ANY WARRANTY; without even the implied warranty of
        MERCHANTABILITY or FITNESS FOR A PARTICULAR PURPOSE.  See the
        GNU General Public License for more details.

        You should have received a copy of the GNU General Public License
        along with this program.  If not, see <http://www.gnu.org/licenses/>.
    -->

    <additional xmlns:xsi="http://www.w3.org/2001/XMLSchema-instance" xsi:noNamespaceSchemaLocation="http://sumo.dlr.de/xsd/additional_file.xsd"> 
        <parkingArea id="1035" lane="-14493_1" startPos="5.0" endPos="10.0" roadsideCapacity="225" friendlyPos="true"/>
        <parkingArea id="1036" lane="-13406_1" startPos="21.489054198125473" endPos="26.489054198125473" roadsideCapacity="75" friendlyPos="true"/>
        <parkingArea id="1037" lane="14501#0_1" startPos="5.0" endPos="10.0" roadsideCapacity="350" friendlyPos="true"/>
        <parkingArea id="1038" lane="-14501#5_1" startPos="13.372495077964167" endPos="18.372495077964167" roadsideCapacity="350" friendlyPos="true"/>
        <parkingArea id="1039" lane="14622_1" startPos="37.648791535697015" endPos="42.648791535697015" roadsideCapacity="50" friendlyPos="true"/>
        <parkingArea id="1040" lane="-13515_1" startPos="49.86501344079725" endPos="54.86501344079725" roadsideCapacity="250" friendlyPos="true"/>
        <parkingArea id="1041" lane="14137#0_1" startPos="5.0" endPos="10.0" roadsideCapacity="50" friendlyPos="true"/>
        <parkingArea id="1042" lane="-14399#2_1" startPos="154.27272341482453" endPos="159.27272341482453" roadsideCapacity="75" friendlyPos="true"/>
        <parkingArea id="1043" lane="-14147_1" startPos="5.0" endPos="10.0" roadsideCapacity="350" friendlyPos="true"/>
        <parkingArea id="1044" lane="-14501#5_1" startPos="49.91218182437004" endPos="54.91218182437004" roadsideCapacity="500" friendlyPos="true"/>
        <parkingArea id="1045" lane="14026#0_0" startPos="113.29619592612327" endPos="118.29619592612327" roadsideCapacity="30" friendlyPos="true"/>
        <parkingArea id="1046" lane="14029_0" startPos="23.824959452759177" endPos="28.824959452759177" roadsideCapacity="10" friendlyPos="true"/>
        <parkingArea id="1047" lane="13507_0" startPos="34.02827182923039" endPos="39.02827182923039" roadsideCapacity="10" friendlyPos="true"/>
        <parkingArea id="1048" lane="14024#1_0" startPos="5.0" endPos="10.0" roadsideCapacity="10" friendlyPos="true"/>
        <parkingArea id="1049" lane="14028#1_0" startPos="15.630567911353483" endPos="20.63056791135348" roadsideCapacity="10" friendlyPos="true"/>
        <parkingArea id="1050" lane="13502#1_0" startPos="24.22524537978921" endPos="29.22524537978921" roadsideCapacity="10" friendlyPos="true"/>
        <parkingArea id="1051" lane="13502#1_0" startPos="52.29784232700817" endPos="57.29784232700817" roadsideCapacity="10" friendlyPos="true"/>
        <parkingArea id="1052" lane="13506_0" startPos="11.297829539460384" endPos="16.297829539460384" roadsideCapacity="10" friendlyPos="true"/>
        <parkingArea id="1053" lane="13506_0" startPos="39.01785968815139" endPos="44.01785968815139" roadsideCapacity="10" friendlyPos="true"/>
        <parkingArea id="1054" lane="14025_0" startPos="41.636974973785996" endPos="46.636974973785996" roadsideCapacity="10" friendlyPos="true"/>
        <parkingArea id="1055" lane="14025_0" startPos="13.170443259034412" endPos="18.170443259034414" roadsideCapacity="10" friendlyPos="true"/>
        <parkingArea id="1056" lane="14028#4_0" startPos="13.35058549534633" endPos="18.35058549534633" roadsideCapacity="10" friendlyPos="true"/>
        <parkingArea id="1057" lane="14028#4_0" startPos="39.31610189485163" endPos="44.31610189485163" roadsideCapacity="10" friendlyPos="true"/>
        <parkingArea id="1058" lane="13509_0" startPos="7.789999999999999" endPos="12.79" roadsideCapacity="10" friendlyPos="true"/>
        <parkingArea id="1059" lane="14060#0_0" startPos="31.594970825129245" endPos="36.594970825129245" roadsideCapacity="50" friendlyPos="true"/>
        <parkingArea id="1060" lane="14052_0" startPos="68.02087098030839" endPos="73.02087098030839" roadsideCapacity="50" friendlyPos="true"/>
        <parkingArea id="1061" lane="13600#1_0" startPos="75.02245864328188" endPos="80.02245864328188" roadsideCapacity="50" friendlyPos="true"/>
        <parkingArea id="1062" lane="13203_0" startPos="40.55424785141005" endPos="45.55424785141005" roadsideCapacity="30" friendlyPos="true"/>
        <parkingArea id="1063" lane="-13476_1" startPos="14.5514537721394" endPos="19.5514537721394" roadsideCapacity="150" friendlyPos="true"/>
        <parkingArea id="1064" lane="13623_1" startPos="50.223672987619004" endPos="55.223672987619004" roadsideCapacity="550" friendlyPos="true"/>
        <parkingArea id="1065" lane="13604_1" startPos="276.94711603300175" endPos="281.94711603300175" roadsideCapacity="250" friendlyPos="true"/>
        <parkingArea id="1066" lane="13806#1_1" startPos="144.09007395390648" endPos="149.09007395390648" roadsideCapacity="250" friendlyPos="true"/>
        <parkingArea id="1067" lane="-14534_1" startPos="26.404384690587825" endPos="31.404384690587825" roadsideCapacity="3500" friendlyPos="true"/>
        <parkingArea id="1068" lane="14026#1_0" startPos="17.610935475634133" endPos="22.610935475634136" roadsideCapacity="30" friendlyPos="true"/>
        <parkingArea id="1069" lane="-13999_1" startPos="130.94359308493603" endPos="135.94359308493603" roadsideCapacity="75" friendlyPos="true"/>
        <parkingArea id="1070" lane="13400_1" startPos="108.01452243795933" endPos="113.01452243795933" roadsideCapacity="250" friendlyPos="true"/>
        <parkingArea id="1071" lane="14507#1_1" startPos="90.78912021374313" endPos="95.78912021374313" roadsideCapacity="1500" friendlyPos="true"/>
        <parkingArea id="1072" lane="13806#1_1" startPos="260.73237498381206" endPos="265.73237498381206" roadsideCapacity="250" friendlyPos="true"/>
        <parkingArea id="1073" lane="13485#3_1" startPos="400.4617631650389" endPos="405.4617631650389" roadsideCapacity="100" friendlyPos="true"/>
        <parkingArea id="1074" lane="13485#3_1" startPos="1235.2012461711004" endPos="1240.2012461711004" roadsideCapacity="100" friendlyPos="true"/>
        <parkingArea id="1075" lane="13427_0" startPos="17.300923510173973" endPos="22.300923510173973" roadsideCapacity="50" friendlyPos="true"/>
        <parkingArea id="1076" lane="-14066_1" startPos="148.36216899016057" endPos="153.36216899016057" roadsideCapacity="75" friendlyPos="true"/>
        <parkingArea id="1077" lane="14732_1" startPos="217.95992474983638" endPos="222.95992474983638" roadsideCapacity="250" friendlyPos="true"/>
        <parkingArea id="1078" lane="-14086#0_1" startPos="476.609991663059" endPos="481.609991663059" roadsideCapacity="50" friendlyPos="true"/>
        <parkingArea id="1079" lane="-14719_1" startPos="13.142333942945289" endPos="18.14233394294529" roadsideCapacity="75" friendlyPos="true"/>
        <parkingArea id="1080" lane="13721#1_1" startPos="88.70995329811235" endPos="93.70995329811234" roadsideCapacity="250" friendlyPos="true"/>
        <parkingArea id="1081" lane="14469_1" startPos="153.1327918049105" endPos="158.1327918049105" roadsideCapacity="100" friendlyPos="true"/>
        <parkingArea id="1082" lane="13400_1" startPos="584.62" endPos="589.62" roadsideCapacity="2500" friendlyPos="true"/>
        <parkingArea id="1083" lane="-14565#0_1" startPos="95.68987502898857" endPos="100.68987502898857" roadsideCapacity="250" friendlyPos="true"/>
        <parkingArea id="1084" lane="-14554#7_1" startPos="17.927291060767477" endPos="22.92729106076748" roadsideCapacity="550" friendlyPos="true"/>
        <parkingArea id="1085" lane="13538#0_1" startPos="18.895095270646827" endPos="23.895095270646827" roadsideCapacity="750" friendlyPos="true"/>
        <parkingArea id="1086" lane="14558#1_1" startPos="14.836925909745283" endPos="19.836925909745283" roadsideCapacity="75" friendlyPos="true"/>
        <parkingArea id="1087" lane="13896#1_1" startPos="47.13192641840574" endPos="52.13192641840574" roadsideCapacity="75" friendlyPos="true"/>
        <parkingArea id="1088" lane="13984#2_1" startPos="54.100521341452435" endPos="59.100521341452435" roadsideCapacity="250" friendlyPos="true"/>
        <parkingArea id="1089" lane="14047_1" startPos="108.35861382476526" endPos="113.35861382476527" roadsideCapacity="2500" friendlyPos="true"/>
        <parkingArea id="1090" lane="-13725_1" startPos="51.2824091084616" endPos="56.2824091084616" roadsideCapacity="75" friendlyPos="true"/>
        <parkingArea id="1091" lane="-13723_1" startPos="30.39" endPos="35.39" roadsideCapacity="35" friendlyPos="true"/>
        <parkingArea id="1092" lane="13843_1" startPos="150.34" endPos="155.34" roadsideCapacity="1500" friendlyPos="true"/>
        <parkingArea id="1093" lane="13724#1_1" startPos="23.26472976764931" endPos="28.26472976764931" roadsideCapacity="75" friendlyPos="true"/>
        <parkingArea id="1094" lane="14715_1" startPos="13.638581102438614" endPos="18.638581102438614" roadsideCapacity="1500" friendlyPos="true"/>
        <parkingArea id="1095" lane="-13732#0_1" startPos="88.0945626869719" endPos="93.09456268697191" roadsideCapacity="35" friendlyPos="true"/>
        <parkingArea id="1096" lane="14474_1" startPos="8.113579025784043" endPos="13.113579025784043" roadsideCapacity="75" friendlyPos="true"/>
        <parkingArea id="1097" lane="13736#4_1" startPos="6.550000000000001" endPos="11.55" roadsideCapacity="75" friendlyPos="true"/>
        <parkingArea id="1098" lane="-14066_1" startPos="864.2704481142536" endPos="869.2704481142536" roadsideCapacity="250" friendlyPos="true"/>
        <parkingArea id="1099" lane="13896#1_1" startPos="27.83464681738401" endPos="32.834646817384005" roadsideCapacity="1500" friendlyPos="true"/>
        <parkingArea id="1100" lane="-13673_1" startPos="5.0" endPos="10.0" roadsideCapacity="1250" friendlyPos="true"/>
        <parkingArea id="1101" lane="14429#1_1" startPos="29.53897049419804" endPos="34.53897049419804" roadsideCapacity="250" friendlyPos="true"/>
        <parkingArea id="1102" lane="14550#24_1" startPos="22.585219176179635" endPos="27.585219176179635" roadsideCapacity="1500" friendlyPos="true"/>
        <parkingArea id="1103" lane="-13811_1" startPos="42.0596591706518" endPos="47.05965917065179" roadsideCapacity="75" friendlyPos="true"/>
        <parkingArea id="1104" lane="-13552_1" startPos="464.81" endPos="469.81" roadsideCapacity="1250" friendlyPos="true"/>
        <parkingArea id="1105" lane="13892_1" startPos="6.5485413189085335" endPos="11.548541318908534" roadsideCapacity="225" friendlyPos="true"/>
        <parkingArea id="1106" lane="-13886#1_1" startPos="7.891248704426305" endPos="12.891248704426305" roadsideCapacity="250" friendlyPos="true"/>
        <parkingArea id="1107" lane="-13847#4_1" startPos="14.819433078619575" endPos="19.819433078619575" roadsideCapacity="35" friendlyPos="true"/>
        <parkingArea id="1108" lane="14083#1_1" startPos="18.118792031793845" endPos="23.118792031793845" roadsideCapacity="1000" friendlyPos="true"/>
        <parkingArea id="1109" lane="-13972#1_1" startPos="47.72" endPos="52.72" roadsideCapacity="6500" friendlyPos="true"/>
        <parkingArea id="1110" lane="13466_1" startPos="52.10342746817628" endPos="57.10342746817628" roadsideCapacity="50" friendlyPos="true"/>
        <parkingArea id="1111" lane="-13469#2_1" startPos="19.495747316242273" endPos="24.495747316242273" roadsideCapacity="1500" friendlyPos="true"/>
        <parkingArea id="1112" lane="-13457#1_1" startPos="11.670000000000002" endPos="16.67" roadsideCapacity="750" friendlyPos="true"/>
        <parkingArea id="1113" lane="-13186_1" startPos="20.862056844378987" endPos="25.862056844378987" roadsideCapacity="750" friendlyPos="true"/>
        <parkingArea id="1114" lane="13890#3_1" startPos="43.96500536748181" endPos="48.96500536748181" roadsideCapacity="750" friendlyPos="true"/>
        <parkingArea id="1115" lane="-13971#0_1" startPos="33.60193591015253" endPos="38.60193591015253" roadsideCapacity="75" friendlyPos="true"/>
        <parkingArea id="1116" lane="-13971#1_1" startPos="110.91541258546857" endPos="115.91541258546857" roadsideCapacity="75" friendlyPos="true"/>
        <parkingArea id="1117" lane="13890#0_1" startPos="10.497115064505993" endPos="15.497115064505993" roadsideCapacity="75" friendlyPos="true"/>
        <parkingArea id="1118" lane="-13653#0_1" startPos="52.27441708884917" endPos="57.27441708884916" roadsideCapacity="250" friendlyPos="true"/>
        <parkingArea id="1119" lane="13852_1" startPos="34.046265270637846" endPos="39.046265270637846" roadsideCapacity="750" friendlyPos="true"/>
        <parkingArea id="1120" lane="-14634#2_1" startPos="7.774672975818444" endPos="12.774672975818444" roadsideCapacity="750" friendlyPos="true"/>
        <parkingArea id="1121" lane="13868#0_1" startPos="5.0" endPos="10.0" roadsideCapacity="1000" friendlyPos="true"/>
        <parkingArea id="1122" lane="14041_1" startPos="43.76651586036369" endPos="48.76651586036369" roadsideCapacity="750" friendlyPos="true"/>
        <parkingArea id="1123" lane="-13876_1" startPos="92.90652251549697" endPos="97.90652251549697" roadsideCapacity="750" friendlyPos="true"/>
        <parkingArea id="1125" lane="13467#1_1" startPos="17.250364553597485" endPos="22.250364553597485" roadsideCapacity="75" friendlyPos="true"/>
        <parkingArea id="1126" lane="13467#2_1" startPos="5.0" endPos="10.0" roadsideCapacity="50" friendlyPos="true"/>
        <parkingArea id="1127" lane="13523_1" startPos="40.431293817561944" endPos="45.431293817561944" roadsideCapacity="750" friendlyPos="true"/>
        <parkingArea id="1128" lane="13749#5_1" startPos="35.26" endPos="40.26" roadsideCapacity="250" friendlyPos="true"/>
        <parkingArea id="1129" lane="13904#1_1" startPos="8.611768536106613" endPos="13.611768536106613" roadsideCapacity="1000" friendlyPos="true"/>
        <parkingArea id="1130" lane="-13886#4_1" startPos="152.16689998654294" endPos="157.16689998654294" roadsideCapacity="75" friendlyPos="true"/>
        <parkingArea id="1131" lane="-13886#4_1" startPos="61.44625702601958" endPos="66.44625702601958" roadsideCapacity="50" friendlyPos="true"/>
        <parkingArea id="1132" lane="-13760#1_1" startPos="28.321096670949157" endPos="33.32109667094916" roadsideCapacity="750" friendlyPos="true"/>
        <parkingArea id="1133" lane="13494#0_1" startPos="22.0638046727294" endPos="27.0638046727294" roadsideCapacity="100" friendlyPos="true"/>
        <parkingArea id="1134" lane="13451_1" startPos="303.02" endPos="308.02" roadsideCapacity="1500" friendlyPos="true"/>
        <parkingArea id="1135" lane="13684_1" startPos="5.0" endPos="10.0" roadsideCapacity="550" friendlyPos="true"/>
        <parkingArea id="1136" lane="-13677#0_1" startPos="93.13407825344812" endPos="98.13407825344812" roadsideCapacity="1250" friendlyPos="true"/>
        <parkingArea id="1137" lane="-14023_1" startPos="8.679163929328823" endPos="13.679163929328823" roadsideCapacity="750" friendlyPos="true"/>
        <parkingArea id="1138" lane="-13745_1" startPos="21.15797962633289" endPos="26.15797962633289" roadsideCapacity="1250" friendlyPos="true"/>
        <parkingArea id="1139" lane="-13659#1_1" startPos="29.284431412516867" endPos="34.28443141251687" roadsideCapacity="550" friendlyPos="true"/>
        <parkingArea id="1140" lane="-14535#1_1" startPos="40.89158028792411" endPos="45.89158028792411" roadsideCapacity="1500" friendlyPos="true"/>
        <parkingArea id="1141" lane="-14399#1_1" startPos="34.78237968630603" endPos="39.78237968630603" roadsideCapacity="250" friendlyPos="true"/>
        <parkingArea id="1142" lane="14122#1_1" startPos="53.96177156662219" endPos="58.96177156662219" roadsideCapacity="250" friendlyPos="true"/>
        <parkingArea id="1143" lane="-14001_1" startPos="50.951084443653734" endPos="55.951084443653734" roadsideCapacity="1500" friendlyPos="true"/>
        <parkingArea id="1144" lane="-13532_1" startPos="107.6238185416443" endPos="112.6238185416443" roadsideCapacity="1250" friendlyPos="true"/>
        <parkingArea id="1145" lane="14009_1" startPos="15.803067688727857" endPos="20.803067688727857" roadsideCapacity="75" friendlyPos="true"/>
        <parkingArea id="1146" lane="-14086#0_1" startPos="1476.80292276453" endPos="1481.80292276453" roadsideCapacity="75" friendlyPos="true"/>
        <parkingArea id="1147" lane="13467#2_1" startPos="88.8004122529529" endPos="93.8004122529529" roadsideCapacity="75" friendlyPos="true"/>
        <parkingArea id="1148" lane="14525#7_1" startPos="392.61008271305957" endPos="397.61008271305957" roadsideCapacity="25" friendlyPos="true"/>
        <parkingArea id="1149" lane="-14640_1" startPos="18.3" endPos="23.3" roadsideCapacity="75" friendlyPos="true"/>
        <parkingArea id="1150" lane="-14098_1" startPos="98.60927885726643" endPos="103.60927885726643" roadsideCapacity="750" friendlyPos="true"/>
        <parkingArea id="1151" lane="14624#1_1" startPos="5.0" endPos="10.0" roadsideCapacity="1000" friendlyPos="true"/>
        <parkingArea id="1152" lane="13451_1" startPos="5.0" endPos="10.0" roadsideCapacity="225" friendlyPos="true"/>
        <parkingArea id="1153" lane="14553#0_1" startPos="83.4270098589463" endPos="88.4270098589463" roadsideCapacity="150" friendlyPos="true"/>
        <parkingArea id="1154" lane="-14011#1_1" startPos="61.77197911998668" endPos="66.77197911998668" roadsideCapacity="1000" friendlyPos="true"/>
        <parkingArea id="1155" lane="-13680_1" startPos="18.301484894806347" endPos="23.301484894806347" roadsideCapacity="1250" friendlyPos="true"/>
        <parkingArea id="1156" lane="14564#0_1" startPos="75.3" endPos="80.3" roadsideCapacity="500" friendlyPos="true"/>
        <parkingArea id="1157" lane="13696#0_1" startPos="5.0" endPos="10.0" roadsideCapacity="3500" friendlyPos="true"/>
        <parkingArea id="1158" lane="13930_1" startPos="8.061934798638232" endPos="13.061934798638232" roadsideCapacity="75" friendlyPos="true"/>
        <parkingArea id="1159" lane="14397#4_1" startPos="199.71475422189027" endPos="204.71475422189027" roadsideCapacity="250" friendlyPos="true"/>
        <parkingArea id="1160" lane="-14397#1_1" startPos="33.78535787463099" endPos="38.78535787463099" roadsideCapacity="75" friendlyPos="true"/>
        <parkingArea id="1161" lane="13204_0" startPos="65.2058684579442" endPos="70.2058684579442" roadsideCapacity="50" friendlyPos="true"/>
        <parkingArea id="1162" lane="13395_1" startPos="432.22052976362403" endPos="437.22052976362403" roadsideCapacity="350" friendlyPos="true"/>
        <rerouter id="1035" edges="-14493">
            <interval begin="0.0" end="86400">
                <!-- in order of distance --> 
                <parkingAreaReroute id="1035" visible="true"/>
                <parkingAreaReroute id="1086" visible="false"/>
                <parkingAreaReroute id="1106" visible="false"/>
                <parkingAreaReroute id="1085" visible="false"/>
                <parkingAreaReroute id="1130" visible="false"/>
                <parkingAreaReroute id="1131" visible="false"/>
                <parkingAreaReroute id="1119" visible="false"/>
                <parkingAreaReroute id="1121" visible="true"/>
                <parkingAreaReroute id="1107" visible="false"/>
                <parkingAreaReroute id="1080" visible="false"/>
            </interval>
        </rerouter>
        <rerouter id="1036" edges="-13406">
            <interval begin="0.0" end="86400">
                <!-- in order of distance --> 
                <parkingAreaReroute id="1036" visible="true"/>
                <parkingAreaReroute id="1101" visible="false"/>
                <parkingAreaReroute id="1141" visible="false"/>
                <parkingAreaReroute id="1042" visible="false"/>
                <parkingAreaReroute id="1064" visible="false"/>
                <parkingAreaReroute id="1084" visible="false"/>
                <parkingAreaReroute id="1160" visible="false"/>
                <parkingAreaReroute id="1039" visible="false"/>
                <parkingAreaReroute id="1137" visible="false"/>
                <parkingAreaReroute id="1136" visible="true"/>
            </interval>
        </rerouter>
        <rerouter id="1037" edges="14501#0">
            <interval begin="0.0" end="86400">
                <!-- in order of distance --> 
                <parkingAreaReroute id="1037" visible="true"/>
                <parkingAreaReroute id="1043" visible="false"/>
                <parkingAreaReroute id="1041" visible="false"/>
                <parkingAreaReroute id="1038" visible="false"/>
                <parkingAreaReroute id="1044" visible="false"/>
                <parkingAreaReroute id="1143" visible="true"/>
                <parkingAreaReroute id="1071" visible="true"/>
                <parkingAreaReroute id="1157" visible="true"/>
                <parkingAreaReroute id="1156" visible="false"/>
                <parkingAreaReroute id="1066" visible="false"/>
            </interval>
        </rerouter>
        <rerouter id="1038" edges="-14501#5">
            <interval begin="0.0" end="86400">
                <!-- in order of distance --> 
                <parkingAreaReroute id="1038" visible="true"/>
                <parkingAreaReroute id="1041" visible="false"/>
                <parkingAreaReroute id="1043" visible="false"/>
                <parkingAreaReroute id="1037" visible="false"/>
                <parkingAreaReroute id="1071" visible="true"/>
                <parkingAreaReroute id="1066" visible="false"/>
                <parkingAreaReroute id="1157" visible="true"/>
                <parkingAreaReroute id="1143" visible="true"/>
                <parkingAreaReroute id="1072" visible="false"/>
                <parkingAreaReroute id="1142" visible="false"/>
            </interval>
        </rerouter>
        <rerouter id="1039" edges="14622">
            <interval begin="0.0" end="86400">
                <!-- in order of distance --> 
                <parkingAreaReroute id="1039" visible="true"/>
                <parkingAreaReroute id="1084" visible="false"/>
                <parkingAreaReroute id="1135" visible="false"/>
                <parkingAreaReroute id="1139" visible="false"/>
                <parkingAreaReroute id="1100" visible="true"/>
                <parkingAreaReroute id="1144" visible="true"/>
                <parkingAreaReroute id="1097" visible="false"/>
                <parkingAreaReroute id="1155" visible="true"/>
                <parkingAreaReroute id="1138" visible="true"/>
                <parkingAreaReroute id="1090" visible="false"/>
            </interval>
        </rerouter>
        <rerouter id="1040" edges="-13515">
            <interval begin="0.0" end="86400">
                <!-- in order of distance --> 
                <parkingAreaReroute id="1040" visible="true"/>
                <parkingAreaReroute id="1153" visible="false"/>
                <parkingAreaReroute id="1102" visible="true"/>
                <parkingAreaReroute id="1063" visible="false"/>
                <parkingAreaReroute id="1089" visible="true"/>
                <parkingAreaReroute id="1079" visible="false"/>
                <parkingAreaReroute id="1069" visible="false"/>
                <parkingAreaReroute id="1147" visible="false"/>
                <parkingAreaReroute id="1120" visible="false"/>
                <parkingAreaReroute id="1109" visible="true"/>
            </interval>
        </rerouter>
        <rerouter id="1041" edges="14137#0">
            <interval begin="0.0" end="86400">
                <!-- in order of distance --> 
                <parkingAreaReroute id="1041" visible="true"/>
                <parkingAreaReroute id="1043" visible="false"/>
                <parkingAreaReroute id="1037" visible="false"/>
                <parkingAreaReroute id="1044" visible="false"/>
                <parkingAreaReroute id="1038" visible="false"/>
                <parkingAreaReroute id="1071" visible="true"/>
                <parkingAreaReroute id="1157" visible="true"/>
                <parkingAreaReroute id="1066" visible="false"/>
                <parkingAreaReroute id="1156" visible="false"/>
                <parkingAreaReroute id="1103" visible="false"/>
            </interval>
        </rerouter>
        <rerouter id="1042" edges="-14399#2">
            <interval begin="0.0" end="86400">
                <!-- in order of distance --> 
                <parkingAreaReroute id="1042" visible="true"/>
                <parkingAreaReroute id="1141" visible="false"/>
                <parkingAreaReroute id="1036" visible="false"/>
                <parkingAreaReroute id="1101" visible="false"/>
                <parkingAreaReroute id="1078" visible="false"/>
                <parkingAreaReroute id="1084" visible="false"/>
                <parkingAreaReroute id="1064" visible="false"/>
                <parkingAreaReroute id="1039" visible="false"/>
                <parkingAreaReroute id="1146" visible="false"/>
                <parkingAreaReroute id="1155" visible="true"/>
            </interval>
        </rerouter>
        <rerouter id="1043" edges="-14147">
            <interval begin="0.0" end="86400">
                <!-- in order of distance --> 
                <parkingAreaReroute id="1043" visible="true"/>
                <parkingAreaReroute id="1037" visible="false"/>
                <parkingAreaReroute id="1041" visible="false"/>
                <parkingAreaReroute id="1044" visible="false"/>
                <parkingAreaReroute id="1038" visible="false"/>
                <parkingAreaReroute id="1143" visible="true"/>
                <parkingAreaReroute id="1071" visible="true"/>
                <parkingAreaReroute id="1157" visible="true"/>
                <parkingAreaReroute id="1103" visible="false"/>
                <parkingAreaReroute id="1066" visible="false"/>
            </interval>
        </rerouter>
        <rerouter id="1044" edges="-14501#5">
            <interval begin="0.0" end="86400">
                <!-- in order of distance --> 
                <parkingAreaReroute id="1044" visible="true"/>
                <parkingAreaReroute id="1041" visible="false"/>
                <parkingAreaReroute id="1037" visible="false"/>
                <parkingAreaReroute id="1043" visible="false"/>
                <parkingAreaReroute id="1103" visible="false"/>
                <parkingAreaReroute id="1066" visible="false"/>
                <parkingAreaReroute id="1071" visible="true"/>
                <parkingAreaReroute id="1143" visible="true"/>
                <parkingAreaReroute id="1072" visible="false"/>
                <parkingAreaReroute id="1156" visible="false"/>
            </interval>
        </rerouter>
        <rerouter id="1045" edges="14026#0">
            <interval begin="0.0" end="86400">
                <!-- in order of distance --> 
                <parkingAreaReroute id="1045" visible="true"/>
                <parkingAreaReroute id="1068" visible="false"/>
            </interval>
        </rerouter>
        <rerouter id="1046" edges="14029">
            <interval begin="0.0" end="86400">
                <!-- in order of distance --> 
                <parkingAreaReroute id="1046" visible="true"/>
            </interval>
        </rerouter>
        <rerouter id="1047" edges="13507">
            <interval begin="0.0" end="86400">
                <!-- in order of distance --> 
                <parkingAreaReroute id="1047" visible="true"/>
            </interval>
        </rerouter>
        <rerouter id="1048" edges="14024#1">
            <interval begin="0.0" end="86400">
                <!-- in order of distance --> 
                <parkingAreaReroute id="1048" visible="true"/>
                <parkingAreaReroute id="1049" visible="false"/>
                <parkingAreaReroute id="1055" visible="false"/>
                <parkingAreaReroute id="1054" visible="false"/>
                <parkingAreaReroute id="1057" visible="false"/>
                <parkingAreaReroute id="1056" visible="false"/>
                <parkingAreaReroute id="1052" visible="false"/>
                <parkingAreaReroute id="1053" visible="false"/>
                <parkingAreaReroute id="1050" visible="false"/>
                <parkingAreaReroute id="1051" visible="false"/>
            </interval>
        </rerouter>
        <rerouter id="1049" edges="14028#1">
            <interval begin="0.0" end="86400">
                <!-- in order of distance --> 
                <parkingAreaReroute id="1049" visible="true"/>
                <parkingAreaReroute id="1054" visible="false"/>
                <parkingAreaReroute id="1055" visible="false"/>
                <parkingAreaReroute id="1056" visible="false"/>
                <parkingAreaReroute id="1052" visible="false"/>
                <parkingAreaReroute id="1057" visible="false"/>
                <parkingAreaReroute id="1053" visible="false"/>
                <parkingAreaReroute id="1051" visible="false"/>
                <parkingAreaReroute id="1050" visible="false"/>
                <parkingAreaReroute id="1046" visible="false"/>
            </interval>
        </rerouter>
        <rerouter id="1050" edges="13502#1">
            <interval begin="0.0" end="86400">
                <!-- in order of distance --> 