<?xml version="1.0" encoding="UTF-8"?>

<!--
    Monaco SUMO Traffic (MoST) Scenario
    Copyright (C) 2018
    Lara CODECA

    This program is free software: you can redistribute it and/or modify
    it under the terms of the GNU General Public License as published by
    the Free Software Foundation, either version 3 of the License, or
    (at your option) any later version.

    This program is distributed in the hope that it will be useful,
    but WITHOUT ANY WARRANTY; without even the implied warranty of
    MERCHANTABILITY or FITNESS FOR A PARTICULAR PURPOSE.  See the
    GNU General Public License for more details.

    You should have received a copy of the GNU General Public License
    along with this program.  If not, see <http://www.gnu.org/licenses/>.
-->

<additional xmlns:xsi="http://www.w3.org/2001/XMLSchema-instance" xsi:noNamespaceSchemaLocation="http://sumo.dlr.de/xsd/additional_file.xsd"> 
    <busStop id="131018" name="Carnoles" lane="152196_0" startPos="12664.078796482998" endPos="12814.078796482998" lines="M0:France" friendlyPos="true"> <!-- 131018 -->
        <access lane="153661_1" pos="334.1136615967097"/>
    </busStop>
    <busStop id="131023" name="Eze" lane="-152194_0" startPos="13081.97" endPos="13231.97" lines="M0:Italy" friendlyPos="true"> <!-- 131023 -->
        <access lane="153483_1" pos="80.0"/>
    </busStop>
    <busStop id="131025" name="Roquebrune-Cap-Martin" lane="152196_0" startPos="10268.47206560731" endPos="10418.472065607308" lines="M0:France" friendlyPos="true"> <!-- 131025 -->
        <access lane="152555_1" pos="41.935"/>
    </busStop>
    <busStop id="131028" name="Monaco - Monte Carlo" lane="152196_0" startPos="6083.638276969557" endPos="6233.6382769695565" lines="M0:France" friendlyPos="true"> <!-- 131028 -->
        <access lane="152233_1" pos="9.405"/>
    </busStop>
    <busStop id="131032" name="Cap d'Ail" lane="152196_0" startPos="2762.08138295124" endPos="2912.08138295124" lines="M0:France" friendlyPos="true"> <!-- 131032 -->
        <access lane="153478#2_1" pos="50.86"/>
    </busStop>
    <busStop id="131034" name="Monte-Carlo Country Club" lane="-152194_0" startPos="3868.383195450909" endPos="4018.3831954509096" lines="M0:Italy" friendlyPos="true"> <!-- 131034 -->
        <access lane="-152564_1" pos="214.31831495418413"/>
    </busStop>
    <busStop id="131052" name="Cap d'Ail" lane="-152194_0" startPos="10323.868188280085" endPos="10473.868188280085" lines="M0:Italy" friendlyPos="true"> <!-- 131052 -->
        <access lane="152139_0" pos="22.81"/>
    </busStop>
    <busStop id="131053" name="Eze" lane="152196_0" startPos="5.0" endPos="155.0" lines="M0:France" friendlyPos="true"> <!-- 131053 -->
        <access lane="153483_1" pos="80.0"/>
    </busStop>
    <busStop id="131064" name="Monaco - Monte Carlo" lane="-152194_0" startPos="7005.283859611509" endPos="7155.283859611509" lines="M0:Italy" friendlyPos="true"> <!-- 131064 -->
        <access lane="152948#0_1" pos="13.645"/>
    </busStop>
    <busStop id="131065" name="Roquebrune-Cap-Martin" lane="-152194_0" startPos="2819.527789889932" endPos="2969.5277898899326" lines="M0:Italy" friendlyPos="true"> <!-- 131065 -->
        <access lane="-153363#1_1" pos="66.46"/>
    </busStop>
    <busStop id="131066" name="Carnoles" lane="-152194_0" startPos="425.6601973481232" endPos="575.6601973481232" lines="M0:Italy" friendlyPos="true"> <!-- 131066 -->
        <access lane="-153017#0_1" pos="1580.005121725379"/>
    </busStop>
    <busStop id="131113" name="Monte-Carlo Country Club" lane="152196_0" startPos="9220.6166804883" endPos="9370.616680488298" lines="M0:France" friendlyPos="true"> <!-- 131113 -->
        <access lane="153241#0_0" pos="203.49376086948843"/>
    </busStop>
</additional>
