<?xml version="1.0" encoding="UTF-8"?>

<!--
    Monaco SUMO Traffic (MoST) Scenario
    Copyright (C) 2018
    Lara CODECA

    This program is free software: you can redistribute it and/or modify
    it under the terms of the GNU General Public License as published by
    the Free Software Foundation, either version 3 of the License, or
    (at your option) any later version.

    This program is distributed in the hope that it will be useful,
    but WITHOUT ANY WARRANTY; without even the implied warranty of
    MERCHANTABILITY or FITNESS FOR A PARTICULAR PURPOSE.  See the
    GNU General Public License for more details.

    You should have received a copy of the GNU General Public License
    along with this program.  If not, see <http://www.gnu.org/licenses/>.
-->

<additional xmlns:xsi="http://www.w3.org/2001/XMLSchema-instance" xsi:noNamespaceSchemaLocation="http://sumo.dlr.de/xsd/additional_file.xsd"> 
    <parkingArea id="152422" lane="-1358_1" startPos="5.0" endPos="10.0" roadsideCapacity="1382" friendlyPos="true"/>
    <parkingArea id="152423" lane="1294#3_1" startPos="335.07" endPos="340.07" roadsideCapacity="1700" friendlyPos="true"/>
    <parkingArea id="152424" lane="1366#0_1" startPos="20.940891621267237" endPos="25.940891621267237" roadsideCapacity="1316" friendlyPos="true"/>
    <parkingArea id="152425" lane="-1366#5_1" startPos="14.07346193028706" endPos="19.07346193028706" roadsideCapacity="343" friendlyPos="true"/>
    <parkingArea id="152426" lane="23_1" startPos="25.472692686137236" endPos="30.472692686137236" roadsideCapacity="1446" friendlyPos="true"/>
    <parkingArea id="152427" lane="-351_1" startPos="48.829618794659794" endPos="53.829618794659794" roadsideCapacity="1463" friendlyPos="true"/>
    <parkingArea id="152428" lane="995#0_1" startPos="5.0" endPos="10.0" roadsideCapacity="2414" friendlyPos="true"/>
    <parkingArea id="152429" lane="-1257#2_1" startPos="137.58108903166087" endPos="142.58108903166087" roadsideCapacity="1678" friendlyPos="true"/>
    <parkingArea id="152430" lane="-1005_1" startPos="29.113181377352007" endPos="34.11318137735201" roadsideCapacity="812" friendlyPos="true"/>
    <parkingArea id="152431" lane="-1366#5_1" startPos="50.64906787660907" endPos="55.64906787660907" roadsideCapacity="395" friendlyPos="true"/>
    <parkingArea id="152432" lane="440#1_0" startPos="109.22758588030952" endPos="114.22758588030952" roadsideCapacity="339" friendlyPos="true"/>
    <parkingArea id="152433" lane="440#1_0" startPos="212.24406382941936" endPos="217.24406382941936" roadsideCapacity="1216" friendlyPos="true"/>
    <parkingArea id="152434" lane="440#1_0" startPos="174.3347984711987" endPos="179.3347984711987" roadsideCapacity="797" friendlyPos="true"/>
    <parkingArea id="152435" lane="440#1_0" startPos="109.22758588030952" endPos="114.22758588030952" roadsideCapacity="1107" friendlyPos="true"/>
    <parkingArea id="152436" lane="440#1_0" startPos="109.22758588030952" endPos="114.22758588030952" roadsideCapacity="2176" friendlyPos="true"/>
    <parkingArea id="152437" lane="440#1_0" startPos="57.96356340805601" endPos="62.96356340805601" roadsideCapacity="1861" friendlyPos="true"/>
    <parkingArea id="152438" lane="440#1_0" startPos="57.96356340805601" endPos="62.96356340805601" roadsideCapacity="598" friendlyPos="true"/>
    <parkingArea id="152439" lane="440#1_0" startPos="57.96356340805601" endPos="62.96356340805601" roadsideCapacity="608" friendlyPos="true"/>
    <parkingArea id="152440" lane="440#1_0" startPos="57.96356340805601" endPos="62.96356340805601" roadsideCapacity="544" friendlyPos="true"/>
    <parkingArea id="152441" lane="440#1_0" startPos="57.96356340805601" endPos="62.96356340805601" roadsideCapacity="2391" friendlyPos="true"/>
    <parkingArea id="152442" lane="440#1_0" startPos="57.96356340805601" endPos="62.96356340805601" roadsideCapacity="1384" friendlyPos="true"/>
    <parkingArea id="152443" lane="-403#0_1" startPos="368.3823945107032" endPos="373.3823945107032" roadsideCapacity="2450" friendlyPos="true"/>
    <parkingArea id="152444" lane="-403#0_1" startPos="368.3823945107032" endPos="373.3823945107032" roadsideCapacity="2486" friendlyPos="true"/>
    <parkingArea id="152445" lane="440#1_0" startPos="174.3347984711987" endPos="179.3347984711987" roadsideCapacity="547" friendlyPos="true"/>
    <parkingArea id="152446" lane="439#1_0" startPos="836.1811491382704" endPos="841.1811491382704" roadsideCapacity="2156" friendlyPos="true"/>
    <parkingArea id="152447" lane="439#1_0" startPos="786.3609795279614" endPos="791.3609795279614" roadsideCapacity="1668" friendlyPos="true"/>
    <parkingArea id="152448" lane="439#1_0" startPos="703.695241764363" endPos="708.695241764363" roadsideCapacity="1592" friendlyPos="true"/>
    <parkingArea id="152449" lane="560_1" startPos="21.456269684953945" endPos="26.456269684953945" roadsideCapacity="573" friendlyPos="true"/>
    <parkingArea id="152450" lane="-312_1" startPos="13.164430931465851" endPos="18.16443093146585" roadsideCapacity="250" friendlyPos="true"/>
    <parkingArea id="152451" lane="471_1" startPos="41.623767202225814" endPos="46.623767202225814" roadsideCapacity="489" friendlyPos="true"/>
    <parkingArea id="152452" lane="448_1" startPos="276.3040589185772" endPos="281.3040589185772" roadsideCapacity="1828" friendlyPos="true"/>
    <parkingArea id="152453" lane="661#1_1" startPos="144.83824088676016" endPos="149.83824088676016" roadsideCapacity="1802" friendlyPos="true"/>
    <parkingArea id="152454" lane="-1399_1" startPos="17.810971654933358" endPos="22.810971654933358" roadsideCapacity="2336" friendlyPos="true"/>
    <parkingArea id="152455" lane="-403#0_1" startPos="362.3191857892423" endPos="367.3191857892423" roadsideCapacity="2241" friendlyPos="true"/>
    <parkingArea id="152456" lane="-855_1" startPos="127.47173727400826" endPos="132.47173727400826" roadsideCapacity="2151" friendlyPos="true"/>
    <parkingArea id="152457" lane="233_1" startPos="106.4014244547489" endPos="111.4014244547489" roadsideCapacity="719" friendlyPos="true"/>
    <parkingArea id="152458" lane="1372#1_1" startPos="92.3179198257805" endPos="97.3179198257805" roadsideCapacity="1423" friendlyPos="true"/>
    <parkingArea id="152459" lane="661#1_1" startPos="261.87753274555155" endPos="266.87753274555155" roadsideCapacity="2098" friendlyPos="true"/>
    <parkingArea id="152460" lane="321#3_1" startPos="399.04792811028767" endPos="404.04792811028767" roadsideCapacity="559" friendlyPos="true"/>
    <parkingArea id="152461" lane="321#3_1" startPos="1234.7051446314113" endPos="1239.7051446314113" roadsideCapacity="488" friendlyPos="true"/>
    <parkingArea id="152462" lane="-543#0_1" startPos="1005.1614962492152" endPos="1010.1614962492152" roadsideCapacity="765" friendlyPos="true"/>
    <parkingArea id="152463" lane="-924_1" startPos="148.13149558232072" endPos="153.13149558232072" roadsideCapacity="1797" friendlyPos="true"/>
    <parkingArea id="152464" lane="1604_1" startPos="218.03550446521697" endPos="223.03550446521697" roadsideCapacity="1299" friendlyPos="true"/>
    <parkingArea id="152465" lane="-924_1" startPos="77.17042674048686" endPos="82.17042674048686" roadsideCapacity="1326" friendlyPos="true"/>
    <parkingArea id="152466" lane="1415#3_1" startPos="8.18" endPos="13.18" roadsideCapacity="321" friendlyPos="true"/>
    <parkingArea id="152467" lane="574#1_1" startPos="77.57123832068388" endPos="82.57123832068389" roadsideCapacity="661" friendlyPos="true"/>
    <parkingArea id="152468" lane="1334_1" startPos="157.27357676359043" endPos="162.27357676359043" roadsideCapacity="1891" friendlyPos="true"/>
    <parkingArea id="152469" lane="441#0_0" startPos="15.903317635687355" endPos="20.903317635687355" roadsideCapacity="1979" friendlyPos="true"/>
    <parkingArea id="152470" lane="-1431#0_1" startPos="80.62464406449823" endPos="85.62464406449823" roadsideCapacity="1637" friendlyPos="true"/>
    <parkingArea id="152471" lane="114_0" startPos="19.02" endPos="24.02" roadsideCapacity="2438" friendlyPos="true"/>
    <parkingArea id="152472" lane="380#1_1" startPos="85.49082474243298" endPos="90.49082474243298" roadsideCapacity="1035" friendlyPos="true"/>
    <parkingArea id="152473" lane="1423#1_1" startPos="15.547207540226228" endPos="20.54720754022623" roadsideCapacity="1908" friendlyPos="true"/>
    <parkingArea id="152474" lane="-17_0" startPos="15.790992318625118" endPos="20.79099231862512" roadsideCapacity="2435" friendlyPos="true"/>
    <parkingArea id="152475" lane="840#2_1" startPos="53.90443654310708" endPos="58.90443654310708" roadsideCapacity="2263" friendlyPos="true"/>
    <parkingArea id="152476" lane="219_1" startPos="73.74749141393193" endPos="78.74749141393193" roadsideCapacity="1868" friendlyPos="true"/>
    <parkingArea id="152477" lane="579_1" startPos="5.502124717848442" endPos="10.502124717848442" roadsideCapacity="2192" friendlyPos="true"/>
    <parkingArea id="152478" lane="-577_1" startPos="30.39" endPos="35.39" roadsideCapacity="2399" friendlyPos="true"/>
    <parkingArea id="152479" lane="696_1" startPos="9.34" endPos="14.34" roadsideCapacity="631" friendlyPos="true"/>
    <parkingArea id="152480" lane="578#1_1" startPos="24.051176998393228" endPos="29.051176998393228" roadsideCapacity="1657" friendlyPos="true"/>
    <parkingArea id="152481" lane="1587_1" startPos="5.0" endPos="10.0" roadsideCapacity="1507" friendlyPos="true"/>
    <parkingArea id="152482" lane="-586#0_1" startPos="91.45198800564563" endPos="96.45198800564565" roadsideCapacity="779" friendlyPos="true"/>
    <parkingArea id="152483" lane="-1340_1" startPos="73.81" endPos="78.81" roadsideCapacity="531" friendlyPos="true"/>
    <parkingArea id="152484" lane="590#4_1" startPos="5.0" endPos="10.0" roadsideCapacity="615" friendlyPos="true"/>
    <parkingArea id="152485" lane="1292_1" startPos="110.97268991096628" endPos="115.97268991096628" roadsideCapacity="1117" friendlyPos="true"/>
    <parkingArea id="152486" lane="751#1_1" startPos="27.329281132161956" endPos="32.32928113216195" roadsideCapacity="898" friendlyPos="true"/>
    <parkingArea id="152487" lane="-524_1" startPos="5.0" endPos="10.0" roadsideCapacity="2401" friendlyPos="true"/>
    <parkingArea id="152488" lane="1294#1_1" startPos="29.892346696410748" endPos="34.89234669641075" roadsideCapacity="1786" friendlyPos="true"/>
    <parkingArea id="152489" lane="1415#25_1" startPos="9.153433214360794" endPos="14.153433214360794" roadsideCapacity="1661" friendlyPos="true"/>
    <parkingArea id="152490" lane="-666_1" startPos="42.49087965128479" endPos="47.49087965128479" roadsideCapacity="1531" friendlyPos="true"/>
    <parkingArea id="152491" lane="-394_1" startPos="444.2238362946468" endPos="449.2238362946468" roadsideCapacity="1661" friendlyPos="true"/>
    <parkingArea id="152492" lane="747_1" startPos="6.052064078337777" endPos="11.052064078337777" roadsideCapacity="2125" friendlyPos="true"/>
    <parkingArea id="152493" lane="-741#1_1" startPos="12.78343031512857" endPos="17.78343031512857" roadsideCapacity="304" friendlyPos="true"/>
    <parkingArea id="152494" lane="-702#4_1" startPos="17.4" endPos="22.4" roadsideCapacity="1415" friendlyPos="true"/>
    <parkingArea id="152495" lane="941#1_1" startPos="17.621314893606865" endPos="22.621314893606865" roadsideCapacity="2052" friendlyPos="true"/>
    <parkingArea id="152496" lane="-828#1_1" startPos="50.23" endPos="55.23" roadsideCapacity="485" friendlyPos="true"/>
    <parkingArea id="152497" lane="-302_1" startPos="54.18058961714895" endPos="59.18058961714895" roadsideCapacity="1078" friendlyPos="true"/>
    <parkingArea id="152498" lane="-305#2_1" startPos="19.499893181558384" endPos="24.499893181558384" roadsideCapacity="1504" friendlyPos="true"/>
    <parkingArea id="152499" lane="-293#1_1" startPos="12.649999999999999" endPos="17.65" roadsideCapacity="412" friendlyPos="true"/>
    <parkingArea id="152500" lane="-12_1" startPos="36.76" endPos="41.76" roadsideCapacity="1848" friendlyPos="true"/>
    <parkingArea id="152501" lane="200#1_0" startPos="92.17624896033584" endPos="97.17624896033584" roadsideCapacity="250" friendlyPos="true"/>
    <parkingArea id="152502" lane="-827#0_1" startPos="33.55967689536296" endPos="38.55967689536296" roadsideCapacity="1284" friendlyPos="true"/>
    <parkingArea id="152503" lane="-827#1_1" startPos="140.33784077658646" endPos="145.33784077658646" roadsideCapacity="2330" friendlyPos="true"/>
    <parkingArea id="152504" lane="745#0_1" startPos="5.0" endPos="10.0" roadsideCapacity="739" friendlyPos="true"/>
    <parkingArea id="152505" lane="-504#0_1" startPos="52.26354526472619" endPos="57.26354526472619" roadsideCapacity="2298" friendlyPos="true"/>
    <parkingArea id="152506" lane="707_1" startPos="33.95350486405616" endPos="38.95350486405616" roadsideCapacity="2369" friendlyPos="true"/>
    <parkingArea id="152507" lane="-1502#2_1" startPos="8.184785528181608" endPos="13.184785528181608" roadsideCapacity="1341" friendlyPos="true"/>
    <parkingArea id="152508" lane="-718#1_1" startPos="354.27" endPos="359.27" roadsideCapacity="505" friendlyPos="true"/>
    <parkingArea id="152509" lane="897_1" startPos="43.28631726081404" endPos="48.28631726081404" roadsideCapacity="1767" friendlyPos="true"/>
    <parkingArea id="152510" lane="-731_1" startPos="85.42201044528515" endPos="90.42201044528515" roadsideCapacity="1799" friendlyPos="true"/>
    <parkingArea id="152512" lane="303#1_1" startPos="17.19036566445625" endPos="22.19036566445625" roadsideCapacity="252" friendlyPos="true"/>
    <parkingArea id="152513" lane="303#2_1" startPos="5.0" endPos="10.0" roadsideCapacity="586" friendlyPos="true"/>
    <parkingArea id="152514" lane="359_1" startPos="41.15874891622474" endPos="46.15874891622474" roadsideCapacity="1697" friendlyPos="true"/>
    <parkingArea id="152515" lane="604#5_1" startPos="32.82786579136825" endPos="37.82786579136825" roadsideCapacity="1177" friendlyPos="true"/>
    <parkingArea id="152516" lane="759#1_1" startPos="22.98300646980521" endPos="27.98300646980521" roadsideCapacity="636" friendlyPos="true"/>
    <parkingArea id="152517" lane="-741#4_1" startPos="151.7111407648532" endPos="156.7111407648532" roadsideCapacity="552" friendlyPos="true"/>
    <parkingArea id="152518" lane="-741#4_1" startPos="60.95168667482833" endPos="65.95168667482832" roadsideCapacity="447" friendlyPos="true"/>
    <parkingArea id="152519" lane="-615#1_1" startPos="28.063157559388475" endPos="33.06315755938847" roadsideCapacity="1404" friendlyPos="true"/>
    <parkingArea id="152520" lane="-330#0_1" startPos="64.53224137816355" endPos="69.53224137816355" roadsideCapacity="574" friendlyPos="true"/>
    <parkingArea id="152521" lane="286_1" startPos="24.17486644765076" endPos="29.17486644765076" roadsideCapacity="1312" friendlyPos="true"/>
    <parkingArea id="152522" lane="537_1" startPos="5.0" endPos="10.0" roadsideCapacity="739" friendlyPos="true"/>
    <parkingArea id="152523" lane="-530#0_1" startPos="69.72888050314742" endPos="74.72888050314742" roadsideCapacity="1514" friendlyPos="true"/>
    <parkingArea id="152524" lane="-879_1" startPos="5.0" endPos="10.0" roadsideCapacity="882" friendlyPos="true"/>
    <parkingArea id="152525" lane="-600_1" startPos="5.0" endPos="10.0" roadsideCapacity="484" friendlyPos="true"/>
    <parkingArea id="152526" lane="-510#1_1" startPos="50.58" endPos="55.58" roadsideCapacity="950" friendlyPos="true"/>
    <parkingArea id="152527" lane="-1400#1_1" startPos="42.24807998589867" endPos="47.24807998589867" roadsideCapacity="446" friendlyPos="true"/>
    <parkingArea id="152528" lane="-1257#2_1" startPos="197.76813704024048" endPos="202.76813704024048" roadsideCapacity="413" friendlyPos="true"/>
    <parkingArea id="152529" lane="980#1_1" startPos="54.68657586147191" endPos="59.68657586147191" roadsideCapacity="698" friendlyPos="true"/>
    <parkingArea id="152530" lane="-857_1" startPos="50.52234819137633" endPos="55.522348191376324" roadsideCapacity="265" friendlyPos="true"/>
    <parkingArea id="152531" lane="-251#0_1" startPos="42.70711666646622" endPos="47.70711666646622" roadsideCapacity="1448" friendlyPos="true"/>
    <parkingArea id="152532" lane="799_1" startPos="5.0" endPos="10.0" roadsideCapacity="477" friendlyPos="true"/>
    <parkingArea id="152533" lane="467_1" startPos="214.57407889254637" endPos="219.57407889254637" roadsideCapacity="2177" friendlyPos="true"/>
    <parkingArea id="152534" lane="303#2_1" startPos="83.67935905047085" endPos="88.67935905047085" roadsideCapacity="660" friendlyPos="true"/>
    <parkingArea id="152535" lane="1390#7_1" startPos="392.57950167121385" endPos="397.5795016712138" roadsideCapacity="316" friendlyPos="true"/>
    <parkingArea id="152536" lane="-1508_1" startPos="17.87" endPos="22.87" roadsideCapacity="1320" friendlyPos="true"/>
    <parkingArea id="152537" lane="-956_1" startPos="98.5149311494917" endPos="103.5149311494917" roadsideCapacity="1412" friendlyPos="true"/>
    <parkingArea id="152538" lane="1491#1_1" startPos="5.0" endPos="10.0" roadsideCapacity="933" friendlyPos="true"/>
    <parkingArea id="152539" lane="290#0_1" startPos="81.54251730895768" endPos="86.54251730895768" roadsideCapacity="412" friendlyPos="true"/>
    <parkingArea id="152540" lane="1418#0_1" startPos="88.54" endPos="93.54" roadsideCapacity="1689" friendlyPos="true"/>
    <parkingArea id="152541" lane="827#1_1" startPos="135.89109940443302" endPos="140.89109940443302" roadsideCapacity="1581" friendlyPos="true"/>
    <parkingArea id="152542" lane="-533_1" startPos="9.50113327981957" endPos="14.50113327981957" roadsideCapacity="273" friendlyPos="true"/>
    <parkingArea id="152543" lane="1430#0_1" startPos="78.8" endPos="83.8" roadsideCapacity="946" friendlyPos="true"/>
    <parkingArea id="152544" lane="549#0_1" startPos="5.0" endPos="10.0" roadsideCapacity="1526" friendlyPos="true"/>
    <parkingArea id="152545" lane="-305#3_1" startPos="5.0" endPos="10.0" roadsideCapacity="323" friendlyPos="true"/>
    <parkingArea id="152546" lane="479#6_1" startPos="35.26916888000835" endPos="40.26916888000835" roadsideCapacity="901" friendlyPos="true"/>
    <parkingArea id="152547" lane="-1255#1_1" startPos="5.731318750194639" endPos="10.731318750194639" roadsideCapacity="799" friendlyPos="true"/>
    <parkingArea id="152548" lane="560_1" startPos="21.456269684953945" endPos="26.456269684953945" roadsideCapacity="1556" friendlyPos="true"/>
    <parkingArea id="152549" lane="1581#1_0" startPos="381.0591867926865" endPos="386.0591867926865" roadsideCapacity="1016" friendlyPos="true"/>
    <parkingArea id="155515" lane="574#3_1" startPos="20.086035508694405" endPos="25.086035508694405" roadsideCapacity="1181" friendlyPos="true"/>
    <rerouter id="152422" edges="-1358">
        <interval begin="0.0" end="36000">
            <parkingAreaReroute id="152473"/> <!-- in order of distance -->
            <parkingAreaReroute id="152536"/>
            <parkingAreaReroute id="152472"/>
        </interval>
    </rerouter>
    <rerouter id="152423" edges="1294#3">
        <interval begin="0.0" end="36000">
            <parkingAreaReroute id="152488"/> <!-- in order of distance -->
            <parkingAreaReroute id="152528"/>
            <parkingAreaReroute id="152429"/>
        </interval>
    </rerouter>
    <rerouter id="152424" edges="1366#0">
        <interval begin="0.0" end="36000">
            <parkingAreaReroute id="152430"/> <!-- in order of distance -->
            <parkingAreaReroute id="152428"/>
            <parkingAreaReroute id="152502"/>
        </interval>
    </rerouter>
    <rerouter id="152425" edges="-1366#5">
        <interval begin="0.0" end="36000">
            <parkingAreaReroute id="152431"/> <!-- in order of distance -->
            <parkingAreaReroute id="152428"/>
            <parkingAreaReroute id="152430"/>
        </interval>
    </rerouter>
    <rerouter id="152426" edges="23">
        <interval begin="0.0" end="36000">
            <parkingAreaReroute id="152505"/> <!-- in order of distance -->
            <parkingAreaReroute id="152471"/>
            <parkingAreaReroute id="152470"/>
        </interval>
    </rerouter>
    <rerouter id="152427" edges="-351">
        <interval begin="0.0" end="36000">
            <parkingAreaReroute id="152540"/> <!-- in order of distance -->
            <parkingAreaReroute id="152489"/>
            <parkingAreaReroute id="152450"/>
        </interval>
    </rerouter>
    <rerouter id="152428" edges="995#0">
        <interval begin="0.0" end="36000">
            <parkingAreaReroute id="152431"/> <!-- in order of distance -->
            <parkingAreaReroute id="152425"/>
            <parkingAreaReroute id="152424"/>
        </interval>
    </rerouter>
    <rerouter id="152429" edges="-1257#2">
        <interval begin="0.0" end="36000">
            <parkingAreaReroute id="152528"/> <!-- in order of distance -->
            <parkingAreaReroute id="152423"/>
            <parkingAreaReroute id="152488"/>
        </interval>
    </rerouter>
    <rerouter id="152430" edges="-1005">
        <interval begin="0.0" end="36000">
            <parkingAreaReroute id="152424"/> <!-- in order of distance -->
            <parkingAreaReroute id="152428"/>
            <parkingAreaReroute id="152431"/>
        </interval>
    </rerouter>
    <rerouter id="152431" edges="-1366#5">
        <interval begin="0.0" end="36000">
            <parkingAreaReroute id="152425"/> <!-- in order of distance -->
            <parkingAreaReroute id="152428"/>
            <parkingAreaReroute id="152430"/>
        </interval>
    </rerouter>
    <rerouter id="152432" edges="440#1">
        <interval begin="0.0" end="36000">
            <parkingAreaReroute id="152455"/> <!-- in order of distance -->
            <parkingAreaReroute id="152435"/>
            <parkingAreaReroute id="152436"/>
        </interval>
    </rerouter>
    <rerouter id="152433" edges="440#1">
        <interval begin="0.0" end="36000">
            <parkingAreaReroute id="152434"/> <!-- in order of distance -->
            <parkingAreaReroute id="152445"/>
            <parkingAreaReroute id="152436"/>
        </interval>
    </rerouter>
    <rerouter id="152434" edges="440#1">
        <interval begin="0.0" end="36000">
            <parkingAreaReroute id="152433"/> <!-- in order of distance -->
            <parkingAreaReroute id="152445"/>
            <parkingAreaReroute id="152436"/>
        </interval>
    </rerouter>
    <rerouter id="152435" edges="440#1">
        <interval begin="0.0" end="36000">
            <parkingAreaReroute id="152436"/> <!-- in order of distance -->
            <parkingAreaReroute id="152439"/>
            <parkingAreaReroute id="152437"/>
        </interval>
    </rerouter>
    <rerouter id="152436" edges="440#1">
        <interval begin="0.0" end="36000">
            <parkingAreaReroute id="152435"/> <!-- in order of distance -->
            <parkingAreaReroute id="152437"/>
            <parkingAreaReroute id="152438"/>
        </interval>
    </rerouter>
    <rerouter id="152437" edges="440#1">
        <interval begin="0.0" end="36000">
            <parkingAreaReroute id="152438"/> <!-- in order of distance -->
            <parkingAreaReroute id="152439"/>
            <parkingAreaReroute id="152440"/>
        </interval>
    </rerouter>
    <rerouter id="152438" edges="440#1">
        <interval begin="0.0" end="36000">
            <parkingAreaReroute id="152437"/> <!-- in order of distance -->
            <parkingAreaReroute id="152439"/>
            <parkingAreaReroute id="152440"/>
        </interval>
    </rerouter>
    <rerouter id="152439" edges="440#1">
        <interval begin="0.0" end="36000">
            <parkingAreaReroute id="152440"/> <!-- in order of distance -->
            <parkingAreaReroute id="152438"/>
            <parkingAreaReroute id="152437"/>
        </interval>
    </rerouter>
    <rerouter id="152440" edges="440#1">
        <interval begin="0.0" end="36000">
            <parkingAreaReroute id="152441"/> <!-- in order of distance -->
            <parkingAreaReroute id="152439"/>
            <parkingAreaReroute id="152438"/>
        </interval>
    </rerouter>
    <rerouter id="152441" edges="440#1">
        <interval begin="0.0" end="36000">
            <parkingAreaReroute id="152440"/> <!-- in order of distance -->
            <parkingAreaReroute id="152442"/>
            <parkingAreaReroute id="152439"/>
        </interval>
    </rerouter>
    <rerouter id="152442" edges="440#1">
        <interval begin="0.0" end="36000">
            <parkingAreaReroute id="152441"/> <!-- in order of distance -->
            <parkingAreaReroute id="152443"/>
            <parkingAreaReroute id="152444"/>
        </interval>
    </rerouter>
    <rerouter id="152443" edges="-403#0">
        <interval begin="0.0" end="36000">
            <parkingAreaReroute id="152444"/> <!-- in order of distance -->
            <parkingAreaReroute id="152442"/>
            <parkingAreaReroute id="152441"/>
        </interval>
    </rerouter>
    <rerouter id="152444" edges="-403#0">
        <interval begin="0.0" end="36000">
            <parkingAreaReroute id="152443"/> <!-- in order of distance -->
            <parkingAreaReroute id="152442"/>
            <parkingAreaReroute id="152441"/>
        </interval>
    </rerouter>
    <rerouter id="152445" edges="440#1">
        <interval begin="0.0" end="36000">
            <parkingAreaReroute id="152434"/> <!-- in order of distance -->
            <parkingAreaReroute id="152433"/>
            <parkingAreaReroute id="152436"/>
        </interval>
    </rerouter>
    <rerouter id="152446" edges="439#1">
        <interval begin="0.0" end="36000">
            <parkingAreaReroute id="152462"/> <!-- in order of distance -->
            <parkingAreaReroute id="152447"/>
            <parkingAreaReroute id="152448"/>
        </interval>
    </rerouter>
    <rerouter id="152447" edges="439#1">
        <interval begin="0.0" end="36000">
            <parkingAreaReroute id="152448"/> <!-- in order of distance -->
            <parkingAreaReroute id="152462"/>
            <parkingAreaReroute id="152446"/>
        </interval>
    </rerouter>
    <rerouter id="152448" edges="439#1">
        <interval begin="0.0" end="36000">
            <parkingAreaReroute id="152548"/> <!-- in order of distance -->
            <parkingAreaReroute id="152447"/>
            <parkingAreaReroute id="152449"/>
        </interval>
    </rerouter>
    <rerouter id="152449" edges="560">
        <interval begin="0.0" end="36000">
            <parkingAreaReroute id="152548"/> <!-- in order of distance -->
            <parkingAreaReroute id="152448"/>
            <parkingAreaReroute id="152447"/>
        </interval>
    </rerouter>
    <rerouter id="152450" edges="-312">
        <interval begin="0.0" end="36000">
            <parkingAreaReroute id="152540"/> <!-- in order of distance -->
            <parkingAreaReroute id="152427"/>
            <parkingAreaReroute id="152489"/>
        </interval>
    </rerouter>
    <rerouter id="152451" edges="471">
        <interval begin="0.0" end="36000">
            <parkingAreaReroute id="152546"/> <!-- in order of distance -->
            <parkingAreaReroute id="152429"/>
            <parkingAreaReroute id="152528"/>
        </interval>
    </rerouter>
    <rerouter id="152452" edges="448">
        <interval begin="0.0" end="36000">
            <parkingAreaReroute id="152457"/> <!-- in order of distance -->
            <parkingAreaReroute id="152549"/>
            <parkingAreaReroute id="152469"/>
        </interval>
    </rerouter>
    <rerouter id="152453" edges="661#1">
        <interval begin="0.0" end="36000">
            <parkingAreaReroute id="152490"/> <!-- in order of distance -->
            <parkingAreaReroute id="152459"/>
            <parkingAreaReroute id="152458"/>
        </interval>
    </rerouter>
    <rerouter id="152454" edges="-1399">
        <interval begin="0.0" end="36000">
            <parkingAreaReroute id="152456"/> <!-- in order of distance -->
            <parkingAreaReroute id="152469"/>
            <parkingAreaReroute id="152452"/>
        </interval>
    </rerouter>
    <rerouter id="152455" edges="-403#0">
        <interval begin="0.0" end="36000">
            <parkingAreaReroute id="152432"/> <!-- in order of distance -->
            <parkingAreaReroute id="152435"/>
            <parkingAreaReroute id="152436"/>
        </interval>
    </rerouter>
    <rerouter id="152456" edges="-855">
        <interval begin="0.0" end="36000">
            <parkingAreaReroute id="152489"/> <!-- in order of distance -->
            <parkingAreaReroute id="152540"/>
            <parkingAreaReroute id="152450"/>
        </interval>
    </rerouter>
    <rerouter id="152457" edges="233">
        <interval begin="0.0" end="36000">
            <parkingAreaReroute id="152452"/> <!-- in order of distance -->
            <parkingAreaReroute id="152549"/>
            <parkingAreaReroute id="152469"/>
        </interval>
    </rerouter>
    <rerouter id="152458" edges="1372#1">
        <interval begin="0.0" end="36000">
            <parkingAreaReroute id="152459"/> <!-- in order of distance -->
            <parkingAreaReroute id="152544"/>
            <parkingAreaReroute id="152490"/>
        </interval>
    </rerouter>
    <rerouter id="152459" edges="661#1">
        <interval begin="0.0" end="36000">
            <parkingAreaReroute id="152490"/> <!-- in order of distance -->
            <parkingAreaReroute id="152458"/>
            <parkingAreaReroute id="152544"/>
        </interval>
    </rerouter>
    <rerouter id="152460" edges="321#3">
        <interval begin="0.0" end="36000">
            <parkingAreaReroute id="152461"/> <!-- in order of distance -->
            <parkingAreaReroute id="152468"/>
            <parkingAreaReroute id="152549"/>
        </interval>
    </rerouter>