<?xml version="1.0" encoding="UTF-8"?>

<!--
    Monaco SUMO Traffic (MoST) Scenario
    Copyright (C) 2018
    Lara CODECA

    This program is free software: you can redistribute it and/or modify
    it under the terms of the GNU General Public License as published by
    the Free Software Foundation, either version 3 of the License, or
    (at your option) any later version.

    This program is distributed in the hope that it will be useful,
    but WITHOUT ANY WARRANTY; without even the implied warranty of
    MERCHANTABILITY or FITNESS FOR A PARTICULAR PURPOSE.  See the
    GNU General Public License for more details.

    You should have received a copy of the GNU General Public License
    along with this program.  If not, see <http://www.gnu.org/licenses/>.
-->

<additional xmlns:xsi="http://www.w3.org/2001/XMLSchema-instance" xsi:noNamespaceSchemaLocation="http://sumo.dlr.de/xsd/additional_file.xsd"> 
    <parkingArea id="1059" lane="-153414_1" startPos="10.0" endPos="20.0" roadsideCapacity="225" friendlyPos="true"/>
    <parkingArea id="1060" lane="-152330_1" startPos="18.191498545200943" endPos="28.191498545200943" roadsideCapacity="75" friendlyPos="true"/>
    <parkingArea id="1061" lane="153422#0_1" startPos="10.0" endPos="20.0" roadsideCapacity="350" friendlyPos="true"/>
    <parkingArea id="1062" lane="-153422#5_1" startPos="10.583917992597222" endPos="20.58391799259722" roadsideCapacity="350" friendlyPos="true"/>
    <parkingArea id="1063" lane="153542_1" startPos="37.87987408341405" endPos="47.87987408341405" roadsideCapacity="50" friendlyPos="true"/>
    <parkingArea id="1064" lane="-152438_1" startPos="46.23766028764538" endPos="56.23766028764538" roadsideCapacity="250" friendlyPos="true"/>
    <parkingArea id="1065" lane="152838#2_1" startPos="10.0" endPos="20.0" roadsideCapacity="50" friendlyPos="true"/>
    <parkingArea id="1066" lane="-153320#2_1" startPos="151.1470514102324" endPos="161.1470514102324" roadsideCapacity="75" friendlyPos="true"/>
    <parkingArea id="1067" lane="-153068_1" startPos="10.0" endPos="20.0" roadsideCapacity="350" friendlyPos="true"/>
    <parkingArea id="1068" lane="-153422#5_1" startPos="47.15180321340752" endPos="57.15180321340752" roadsideCapacity="500" friendlyPos="true"/>
    <parkingArea id="1069" lane="152947#0_0" startPos="105.83394299235374" endPos="115.83394299235371" roadsideCapacity="30" friendlyPos="true"/>
    <parkingArea id="1070" lane="152950_0" startPos="20.368612293044286" endPos="30.368612293044283" roadsideCapacity="10" friendlyPos="true"/>
    <parkingArea id="1071" lane="152430_0" startPos="31.41169525999397" endPos="41.41169525999397" roadsideCapacity="10" friendlyPos="true"/>
    <parkingArea id="1072" lane="152425#1_0" startPos="10.0" endPos="20.0" roadsideCapacity="10" friendlyPos="true"/>
    <parkingArea id="1073" lane="152949#1_0" startPos="12.59527880416191" endPos="22.59527880416191" roadsideCapacity="10" friendlyPos="true"/>
    <parkingArea id="1074" lane="152425#1_0" startPos="21.254673498468975" endPos="31.25467349846898" roadsideCapacity="10" friendlyPos="true"/>
    <parkingArea id="1075" lane="152425#1_0" startPos="46.150000000000006" endPos="56.150000000000006" roadsideCapacity="10" friendlyPos="true"/>
    <parkingArea id="1076" lane="152429_0" startPos="10.0" endPos="20.0" roadsideCapacity="10" friendlyPos="true"/>
    <parkingArea id="1077" lane="152429_0" startPos="36.0" endPos="46.0" roadsideCapacity="10" friendlyPos="true"/>
    <parkingArea id="1078" lane="152946_0" startPos="38.11359176019805" endPos="48.11359176019805" roadsideCapacity="10" friendlyPos="true"/>
    <parkingArea id="1079" lane="152946_0" startPos="10.0" endPos="20.0" roadsideCapacity="10" friendlyPos="true"/>
    <parkingArea id="1080" lane="152949#4_0" startPos="10.424359338905218" endPos="20.42435933890522" roadsideCapacity="10" friendlyPos="true"/>
    <parkingArea id="1081" lane="152949#4_0" startPos="36.39976501427444" endPos="46.39976501427445" roadsideCapacity="10" friendlyPos="true"/>
    <parkingArea id="1082" lane="152430_0" startPos="10.0" endPos="20.0" roadsideCapacity="10" friendlyPos="true"/>
    <parkingArea id="1083" lane="152981#0_0" startPos="28.709240862090738" endPos="38.70924086209074" roadsideCapacity="50" friendlyPos="true"/>
    <parkingArea id="1084" lane="152973_0" startPos="65.15270464275225" endPos="75.15270464275227" roadsideCapacity="50" friendlyPos="true"/>
    <parkingArea id="1085" lane="152523#1_0" startPos="71.538132078211" endPos="81.538132078211" roadsideCapacity="50" friendlyPos="true"/>
    <parkingArea id="1086" lane="152146_0" startPos="37.51369263546633" endPos="47.51369263546633" roadsideCapacity="30" friendlyPos="true"/>
    <parkingArea id="1087" lane="-152325#0_1" startPos="376.2003031773777" endPos="386.2003031773777" roadsideCapacity="150" friendlyPos="true"/>
    <parkingArea id="1088" lane="152546_1" startPos="47.03561392098869" endPos="57.03561392098869" roadsideCapacity="550" friendlyPos="true"/>
    <parkingArea id="1089" lane="152527_1" startPos="273.81349224230314" endPos="283.81349224230314" roadsideCapacity="250" friendlyPos="true"/>
    <parkingArea id="1090" lane="152729#1_1" startPos="141.34062523616294" endPos="151.34062523616294" roadsideCapacity="250" friendlyPos="true"/>
    <parkingArea id="1091" lane="-153455_1" startPos="23.834127294388516" endPos="33.834127294388516" roadsideCapacity="3500" friendlyPos="true"/>
    <parkingArea id="1092" lane="152947#1_0" startPos="14.519458608208833" endPos="24.51945860820883" roadsideCapacity="30" friendlyPos="true"/>
    <parkingArea id="1093" lane="-152922_1" startPos="124.96073652542965" endPos="134.96073652542967" roadsideCapacity="75" friendlyPos="true"/>
    <parkingArea id="1094" lane="152324_1" startPos="105.12628506230271" endPos="115.12628506230271" roadsideCapacity="250" friendlyPos="true"/>
    <parkingArea id="1095" lane="153428#1_1" startPos="82.52" endPos="92.52" roadsideCapacity="1500" friendlyPos="true"/>
    <parkingArea id="1096" lane="152729#1_1" startPos="257.63" endPos="267.63" roadsideCapacity="250" friendlyPos="true"/>
    <parkingArea id="1097" lane="152408#3_1" startPos="395.5531002049379" endPos="405.5531002049379" roadsideCapacity="100" friendlyPos="true"/>
    <parkingArea id="1098" lane="152408#3_1" startPos="1230.91" endPos="1240.91" roadsideCapacity="100" friendlyPos="true"/>
    <parkingArea id="1099" lane="152351_0" startPos="14.456111907943685" endPos="24.456111907943686" roadsideCapacity="50" friendlyPos="true"/>
    <parkingArea id="1100" lane="-152987_1" startPos="145.63085012287993" endPos="155.6308501228799" roadsideCapacity="75" friendlyPos="true"/>
    <parkingArea id="1101" lane="153651_1" startPos="215.5353234652641" endPos="225.53532346526413" roadsideCapacity="250" friendlyPos="true"/>
    <parkingArea id="1102" lane="-153007#0_1" startPos="473.628987137712" endPos="483.628987137712" roadsideCapacity="50" friendlyPos="true"/>
    <parkingArea id="1103" lane="-153638_1" startPos="10.0" endPos="20.0" roadsideCapacity="75" friendlyPos="true"/>
    <parkingArea id="1104" lane="152644#1_1" startPos="86.22406506320391" endPos="96.22406506320391" roadsideCapacity="250" friendlyPos="true"/>
    <parkingArea id="1105" lane="153390_1" startPos="150.7539571943521" endPos="160.7539571943521" roadsideCapacity="100" friendlyPos="true"/>
    <parkingArea id="1106" lane="152324_1" startPos="572.08" endPos="582.08" roadsideCapacity="2500" friendlyPos="true"/>
    <parkingArea id="1107" lane="-153486#0_1" startPos="92.73943398744188" endPos="102.73943398744188" roadsideCapacity="250" friendlyPos="true"/>
    <parkingArea id="1108" lane="-153475#7_1" startPos="14.086941257149164" endPos="24.086941257149164" roadsideCapacity="550" friendlyPos="true"/>
    <parkingArea id="1109" lane="152461#0_1" startPos="15.247394894158564" endPos="25.247394894158564" roadsideCapacity="750" friendlyPos="true"/>
    <parkingArea id="1110" lane="153479#1_1" startPos="14.644444152311884" endPos="24.644444152311884" roadsideCapacity="75" friendlyPos="true"/>
    <parkingArea id="1111" lane="152819#1_1" startPos="42.27" endPos="52.27" roadsideCapacity="75" friendlyPos="true"/>
    <parkingArea id="1112" lane="152907#2_1" startPos="51.40308031008634" endPos="61.40308031008634" roadsideCapacity="250" friendlyPos="true"/>
    <parkingArea id="1113" lane="152968_1" startPos="105.45503132773575" endPos="115.45503132773575" roadsideCapacity="2500" friendlyPos="true"/>
    <parkingArea id="1114" lane="-152648_1" startPos="47.77855212969695" endPos="57.77855212969695" roadsideCapacity="75" friendlyPos="true"/>
    <parkingArea id="1115" lane="-152646_1" startPos="20.39" endPos="30.39" roadsideCapacity="35" friendlyPos="true"/>
    <parkingArea id="1116" lane="152766_1" startPos="140.05" endPos="150.05" roadsideCapacity="1500" friendlyPos="true"/>
    <parkingArea id="1117" lane="152647#1_1" startPos="20.54894322667777" endPos="30.54894322667777" roadsideCapacity="75" friendlyPos="true"/>
    <parkingArea id="1118" lane="153634_1" startPos="11.067015902151208" endPos="21.06701590215121" roadsideCapacity="1500" friendlyPos="true"/>
    <parkingArea id="1119" lane="-152655#0_1" startPos="85.5435846694303" endPos="95.5435846694303" roadsideCapacity="35" friendlyPos="true"/>
    <parkingArea id="1120" lane="-153396_1" startPos="62.81999999999999" endPos="72.82" roadsideCapacity="75" friendlyPos="true"/>
    <parkingArea id="1121" lane="-152669#1_1" startPos="10.0" endPos="20.0" roadsideCapacity="75" friendlyPos="true"/>
    <parkingArea id="1122" lane="-152987_1" startPos="860.3489881707926" endPos="870.3489881707926" roadsideCapacity="250" friendlyPos="true"/>
    <parkingArea id="1123" lane="152819#1_1" startPos="24.833781188444974" endPos="34.83378118844497" roadsideCapacity="1500" friendlyPos="true"/>
    <parkingArea id="1124" lane="152529#6_1" startPos="28.994704020024265" endPos="38.994704020024265" roadsideCapacity="1250" friendlyPos="true"/>
    <parkingArea id="1125" lane="153350#1_1" startPos="19.46" endPos="29.46" roadsideCapacity="250" friendlyPos="true"/>
    <parkingArea id="1126" lane="153471#24_1" startPos="18.61" endPos="28.61" roadsideCapacity="1500" friendlyPos="true"/>
    <parkingArea id="1127" lane="-152734_1" startPos="38.99028532596053" endPos="48.99028532596053" roadsideCapacity="75" friendlyPos="true"/>
    <parkingArea id="1128" lane="-152475_1" startPos="456.94" endPos="466.94" roadsideCapacity="1250" friendlyPos="true"/>
    <parkingArea id="1129" lane="152815_1" startPos="18.89107784894933" endPos="28.89107784894933" roadsideCapacity="225" friendlyPos="true"/>
    <parkingArea id="1130" lane="152891_1" startPos="10.0" endPos="20.0" roadsideCapacity="250" friendlyPos="true"/>
    <parkingArea id="1131" lane="152770#4_1" startPos="10.0" endPos="20.0" roadsideCapacity="35" friendlyPos="true"/>
    <parkingArea id="1132" lane="153004#1_1" startPos="17.950000000000003" endPos="27.950000000000003" roadsideCapacity="1000" friendlyPos="true"/>
    <parkingArea id="1133" lane="-152895#1_1" startPos="37.26" endPos="47.26" roadsideCapacity="6500" friendlyPos="true"/>
    <parkingArea id="1134" lane="152390_1" startPos="49.93175215381767" endPos="59.93175215381767" roadsideCapacity="50" friendlyPos="true"/>
    <parkingArea id="1135" lane="-152393#2_1" startPos="24.50484705942423" endPos="34.50484705942423" roadsideCapacity="1500" friendlyPos="true"/>
    <parkingArea id="1136" lane="-152826#0_1" startPos="10.0" endPos="20.0" roadsideCapacity="750" friendlyPos="true"/>
    <parkingArea id="1137" lane="-152129_1" startPos="17.812106434961176" endPos="27.812106434961176" roadsideCapacity="750" friendlyPos="true"/>
    <parkingArea id="1138" lane="152813#3_1" startPos="34.356580305289455" endPos="44.356580305289455" roadsideCapacity="750" friendlyPos="true"/>
    <parkingArea id="1139" lane="-152894#0_1" startPos="31.06016137938613" endPos="41.06016137938613" roadsideCapacity="75" friendlyPos="true"/>
    <parkingArea id="1140" lane="-152894#1_1" startPos="107.84811349910291" endPos="117.84811349910291" roadsideCapacity="75" friendlyPos="true"/>
    <parkingArea id="1141" lane="152797_1" startPos="13.75" endPos="23.75" roadsideCapacity="75" friendlyPos="true"/>
    <parkingArea id="1142" lane="-152576#0_1" startPos="49.75395728361974" endPos="59.75395728361974" roadsideCapacity="250" friendlyPos="true"/>
    <parkingArea id="1143" lane="152775_1" startPos="30.20240131102198" endPos="40.20240131102198" roadsideCapacity="750" friendlyPos="true"/>
    <parkingArea id="1144" lane="-153554#2_1" startPos="10.0" endPos="20.0" roadsideCapacity="750" friendlyPos="true"/>
    <parkingArea id="1145" lane="152791#0_1" startPos="10.0" endPos="20.0" roadsideCapacity="1000" friendlyPos="true"/>
    <parkingArea id="1146" lane="152962_1" startPos="40.7845496767217" endPos="50.7845496767217" roadsideCapacity="750" friendlyPos="true"/>
    <parkingArea id="1147" lane="-152799_1" startPos="77.35744050395286" endPos="87.35744050395286" roadsideCapacity="750" friendlyPos="true"/>
    <parkingArea id="1149" lane="152391#1_1" startPos="13.691070060325536" endPos="23.691070060325536" roadsideCapacity="75" friendlyPos="true"/>
    <parkingArea id="1150" lane="152391#2_1" startPos="10.0" endPos="20.0" roadsideCapacity="50" friendlyPos="true"/>
    <parkingArea id="1151" lane="152446_1" startPos="37.66923210112182" endPos="47.66923210112182" roadsideCapacity="750" friendlyPos="true"/>
    <parkingArea id="1152" lane="152672#5_1" startPos="24.560000000000002" endPos="34.56" roadsideCapacity="250" friendlyPos="true"/>
    <parkingArea id="1153" lane="152827#1_1" startPos="10.0" endPos="20.0" roadsideCapacity="1000" friendlyPos="true"/>
    <parkingArea id="1154" lane="-152809#4_1" startPos="143.4" endPos="153.4" roadsideCapacity="75" friendlyPos="true"/>
    <parkingArea id="1155" lane="-152809#4_1" startPos="58.48972265307343" endPos="68.48972265307343" roadsideCapacity="50" friendlyPos="true"/>
    <parkingArea id="1156" lane="-152683#1_1" startPos="25.57110683074404" endPos="35.571106830744036" roadsideCapacity="750" friendlyPos="true"/>
    <parkingArea id="1157" lane="152417#0_1" startPos="19.127040846320085" endPos="29.127040846320085" roadsideCapacity="100" friendlyPos="true"/>
    <parkingArea id="1158" lane="152375_1" startPos="292.5" endPos="302.5" roadsideCapacity="1500" friendlyPos="true"/>
    <parkingArea id="1159" lane="152529#4_1" startPos="228.20533497607153" endPos="238.20533497607153" roadsideCapacity="550" friendlyPos="true"/>
    <parkingArea id="1160" lane="-152600#0_1" startPos="90.87523535996247" endPos="100.87523535996247" roadsideCapacity="1250" friendlyPos="true"/>
    <parkingArea id="1161" lane="-152646_1" startPos="20.39" endPos="30.39" roadsideCapacity="750" friendlyPos="true"/>
    <parkingArea id="1162" lane="-152668_1" startPos="18.828831276418114" endPos="28.828831276418114" roadsideCapacity="1250" friendlyPos="true"/>
    <parkingArea id="1163" lane="-152582#1_1" startPos="26.29037711501739" endPos="36.29037711501739" roadsideCapacity="550" friendlyPos="true"/>
    <parkingArea id="1164" lane="-153456#1_1" startPos="37.41" endPos="47.41" roadsideCapacity="1500" friendlyPos="true"/>
    <parkingArea id="1165" lane="-153320#1_1" startPos="31.638893823745292" endPos="41.638893823745285" roadsideCapacity="250" friendlyPos="true"/>
    <parkingArea id="1166" lane="153043#1_1" startPos="49.959999999999994" endPos="59.959999999999994" roadsideCapacity="250" friendlyPos="true"/>
    <parkingArea id="1167" lane="-152924_1" startPos="47.04611912077444" endPos="57.04611912077444" roadsideCapacity="1500" friendlyPos="true"/>
    <parkingArea id="1168" lane="-152455_1" startPos="100.21" endPos="110.21" roadsideCapacity="1250" friendlyPos="true"/>
    <parkingArea id="1169" lane="-152931_1" startPos="10.0" endPos="20.0" roadsideCapacity="75" friendlyPos="true"/>
    <parkingArea id="1170" lane="-153007#0_1" startPos="1474.3210728763772" endPos="1484.3210728763772" roadsideCapacity="75" friendlyPos="true"/>
    <parkingArea id="1171" lane="152391#2_1" startPos="86.18595081883184" endPos="96.18595081883183" roadsideCapacity="75" friendlyPos="true"/>
    <parkingArea id="1172" lane="153446#7_1" startPos="401.78" endPos="411.78" roadsideCapacity="25" friendlyPos="true"/>
    <parkingArea id="1173" lane="153444#8_1" startPos="10.0" endPos="20.0" roadsideCapacity="75" friendlyPos="true"/>
    <parkingArea id="1174" lane="-153019_1" startPos="96.01485565702913" endPos="106.01485565702913" roadsideCapacity="750" friendlyPos="true"/>
    <parkingArea id="1175" lane="153544#0_1" startPos="10.0" endPos="20.0" roadsideCapacity="1000" friendlyPos="true"/>
    <parkingArea id="1176" lane="152375_1" startPos="10.0" endPos="20.0" roadsideCapacity="225" friendlyPos="true"/>
    <parkingArea id="1177" lane="153474#0_1" startPos="77.51" endPos="87.51" roadsideCapacity="150" friendlyPos="true"/>
    <parkingArea id="1178" lane="-152933#1_1" startPos="59.0079760654871" endPos="69.0079760654871" roadsideCapacity="1000" friendlyPos="true"/>
    <parkingArea id="1179" lane="-152603_1" startPos="14.769064154979382" endPos="24.769064154979382" roadsideCapacity="1250" friendlyPos="true"/>
    <parkingArea id="1180" lane="153485#0_1" startPos="62.040000000000006" endPos="72.04" roadsideCapacity="500" friendlyPos="true"/>
    <parkingArea id="1181" lane="-152619#0_1" startPos="150.28" endPos="160.28" roadsideCapacity="3500" friendlyPos="true"/>
    <parkingArea id="1182" lane="152853_1" startPos="10.0" endPos="20.0" roadsideCapacity="75" friendlyPos="true"/>
    <parkingArea id="1183" lane="153318#4_1" startPos="197.2618085767816" endPos="207.2618085767816" roadsideCapacity="250" friendlyPos="true"/>
    <parkingArea id="1184" lane="-153318#1_1" startPos="31.06587230698064" endPos="41.06587230698064" roadsideCapacity="75" friendlyPos="true"/>
    <parkingArea id="1185" lane="152147_0" startPos="61.70736997596153" endPos="71.70736997596153" roadsideCapacity="50" friendlyPos="true"/>
    <parkingArea id="1186" lane="152319_1" startPos="425.9836107760887" endPos="435.9836107760888" roadsideCapacity="350" friendlyPos="true"/>
</additional>
    