<?xml version="1.0" encoding="UTF-8"?>

<!--
    Monaco SUMO Traffic (MoST) Scenario
    Copyright (C) 2018
    Lara CODECA

    This program is free software: you can redistribute it and/or modify
    it under the terms of the GNU General Public License as published by
    the Free Software Foundation, either version 3 of the License, or
    (at your option) any later version.

    This program is distributed in the hope that it will be useful,
    but WITHOUT ANY WARRANTY; without even the implied warranty of
    MERCHANTABILITY or FITNESS FOR A PARTICULAR PURPOSE.  See the
    GNU General Public License for more details.

    You should have received a copy of the GNU General Public License
    along with this program.  If not, see <http://www.gnu.org/licenses/>.
-->

<additional xmlns:xsi="http://www.w3.org/2001/XMLSchema-instance" xsi:noNamespaceSchemaLocation="http://sumo.dlr.de/xsd/additional_file.xsd"> 
    <busStop id="155336" name="Carnoles" lane="49#1_0" startPos="6423.374537860453" endPos="6573.374537860453" lines="M0:France" friendlyPos="true"> <!-- 155336 -->
        <access lane="1604_0" pos="334.53956001011693"/>
    </busStop>
    <busStop id="155341" name="Eze" lane="66#1_0" startPos="5928.46" endPos="6078.46" lines="M0:Italy" friendlyPos="true"> <!-- 155341 -->
        <access lane="1417_0" pos="80.0"/>
    </busStop>
    <busStop id="155343" name="Roquebrune-Cap-Martin" lane="49#1_0" startPos="4028.634125626301" endPos="4178.634125626301" lines="M0:France" friendlyPos="true"> <!-- 155343 -->
        <access lane="471_0" pos="35.85"/>
    </busStop>
    <busStop id="155346" name="Monaco - Monte Carlo" lane="67_0" startPos="6040.265692378214" endPos="6190.265692378212" lines="M0:France" friendlyPos="true"> <!-- 155346 -->
        <access lane="686_0" pos="8.365"/>
    </busStop>
    <busStop id="155350" name="Cap d'Ail" lane="67_0" startPos="2762.573714336322" endPos="2912.5737143363212" lines="M0:France" friendlyPos="true"> <!-- 155350 -->
        <access lane="1412#2_0" pos="50.47"/>
    </busStop>
    <busStop id="155352" name="Monte-Carlo Country Club" lane="58_0" startPos="3862.8192399828345" endPos="4012.8192399828336" lines="M0:Italy" friendlyPos="true"> <!-- 155352 -->
        <access lane="-481_0" pos="212.65428243164234"/>
    </busStop>
    <busStop id="155370" name="Cap d'Ail" lane="66#1_0" startPos="3169.0951570990574" endPos="3319.0951570990574" lines="M0:Italy" friendlyPos="true"> <!-- 155370 -->
        <access lane="14_0" pos="22.335"/>
    </busStop>
    <busStop id="155371" name="Eze" lane="67_0" startPos="5.0" endPos="155.0" lines="M0:France" friendlyPos="true"> <!-- 155371 -->
        <access lane="1417_0" pos="80.0"/>
    </busStop>
    <busStop id="155382" name="Monaco - Monte Carlo" lane="58_0" startPos="6975.64" endPos="7125.64" lines="M0:Italy" friendlyPos="true"> <!-- 155382 -->
        <access lane="712#1_0" pos="7.19"/>
    </busStop>
    <busStop id="155383" name="Roquebrune-Cap-Martin" lane="58_0" startPos="2803.0737420974833" endPos="2953.0737420974824" lines="M0:Italy" friendlyPos="true"> <!-- 155383 -->
        <access lane="-1297#1_0" pos="66.55"/>
    </busStop>
    <busStop id="155384" name="Carnoles" lane="58_0" startPos="419.9651835428389" endPos="569.9651835428389" lines="M0:Italy" friendlyPos="true"> <!-- 155384 -->
        <access lane="-944#0_0" pos="1581.0452008095426"/>
    </busStop>
    <busStop id="155431" name="Monte-Carlo Country Club" lane="49#1_0" startPos="2980.324799477628" endPos="3130.324799477628" lines="M0:France" friendlyPos="true"> <!-- 155431 -->
        <access lane="1168#0_0" pos="203.40493586725978"/>
    </busStop>
</additional>
