<?xml version="1.0" encoding="UTF-8"?>

<!-- 
    Monaco SUMO Traffic (MoST) Scenario
    Copyright (C) 2018 
    Lara CODECA

    This program is free software: you can redistribute it and/or modify
    it under the terms of the GNU General Public License as published by
    the Free Software Foundation, either version 3 of the License, or
    (at your option) any later version.

    This program is distributed in the hope that it will be useful,
    but WITHOUT ANY WARRANTY; without even the implied warranty of
    MERCHANTABILITY or FITNESS FOR A PARTICULAR PURPOSE.  See the
    GNU General Public License for more details.

    You should have received a copy of the GNU General Public License
    along with this program.  If not, see <http://www.gnu.org/licenses/>.
-->

<additional xmlns:xsi="http://www.w3.org/2001/XMLSchema-instance" xsi:noNamespaceSchemaLocation="http://sumo.dlr.de/xsd/additional_file.xsd">
    <location netOffset="-368141.85,-4841896.61" convBoundary="-55.32,-91.69,10035.26,7467.57" origBoundary="7.362130,43.717722,7.486528,43.785993" projParameter="+proj=utm +zone=32 +ellps=WGS84 +datum=WGS84 +units=m +no_defs"/>

    <poly id="1" type="boundary.administrative" color="255,26,26" fill="0" layer="0.00" shape="10035.26,4850.81 10034.04,4751.83 9911.36,4753.34 9912.58,4852.31 10035.26,4850.81"/>
    <poly id="10000" type="building.yes" color="255,128,128" fill="1" layer="1.00" shape="2948.27,585.48 2950.86,584.37 2952.61,583.66 2953.91,586.76 2947.40,589.46 2946.11,586.36 2948.27,585.48"/>
    <poly id="10001" type="building.yes" color="255,128,128" fill="1" layer="1.00" shape="2962.51,404.25 2964.63,400.38 2968.91,402.84 2969.71,401.47 2979.12,406.84 2976.08,412.14 2962.51,404.25"/>
    <poly id="10002" type="building.yes" color="255,128,128" fill="1" layer="1.00" shape="2734.82,593.10 2736.86,592.33 2736.98,597.15 2741.38,596.99 2741.45,599.03 2744.72,598.95 2745.05,607.61 2741.62,607.71 2741.37,605.51 2738.43,605.64 2734.17,605.56 2734.05,603.03 2735.12,602.94 2734.90,597.20 2734.82,593.10"/>
    <poly id="10003" type="building.yes" color="255,128,128" fill="1" layer="1.00" shape="2731.41,851.42 2727.07,865.13 2723.36,863.60 2721.53,867.50 2703.51,860.02 2694.42,855.62 2676.94,846.38 2662.75,838.68 2665.84,832.71 2661.08,830.45 2660.55,831.14 2656.47,829.08 2656.89,828.15 2649.81,824.42 2649.70,824.10 2645.35,821.73 2645.03,821.83 2641.12,819.83 2640.52,820.77 2636.26,818.39 2639.39,812.17 2645.44,815.25 2646.22,813.71 2647.02,812.42 2649.58,813.71 2648.95,815.14 2656.27,818.77 2655.83,819.46 2658.30,820.66 2657.65,821.94 2663.19,824.80 2668.48,827.52 2669.34,825.98 2669.70,825.38 2674.16,827.91 2674.65,826.97 2678.59,829.13 2679.53,827.59 2679.69,827.42 2691.46,833.73 2691.31,833.99 2690.37,835.54 2695.31,838.11 2694.82,839.21 2698.85,841.61 2698.22,842.98 2696.52,846.62 2703.97,849.82 2705.51,846.27 2707.12,842.63 2711.35,844.45 2712.35,842.41 2716.81,844.12 2721.70,845.96 2721.22,847.14 2729.51,850.62 2731.41,851.42"/>
    <poly id="10004" type="building.yes" color="255,128,128" fill="1" layer="1.00" shape="2740.10,845.40 2739.04,845.14 2738.42,846.67 2729.60,843.65 2732.44,834.67 2736.97,836.05 2741.58,837.51 2741.19,838.84 2745.47,840.16 2745.87,839.07 2750.73,840.50 2750.39,841.35 2753.73,842.32 2751.56,849.37 2740.10,845.40"/>
    <poly id="10005" type="building.yes" color="255,128,128" fill="1" layer="1.00" shape="2697.28,405.11 2698.35,412.37 2690.72,413.28 2688.92,412.27 2683.02,408.94 2674.86,404.47 2675.36,403.50 2678.15,398.58 2691.73,405.91 2697.28,405.11"/>
    <poly id="10006" type="building.yes" color="255,128,128" fill="1" layer="1.00" shape="2672.30,402.24 2671.79,403.22 2664.54,399.44 2662.33,398.29 2665.73,392.32 2673.32,396.34 2670.75,401.44 2672.30,402.24"/>
    <poly id="10007" type="building.yes" color="255,128,128" fill="1" layer="1.00" shape="2707.18,453.97 2705.79,467.14 2696.12,467.05 2690.70,466.45 2691.89,457.95 2693.08,451.34 2694.38,451.56 2694.83,447.92 2705.95,449.11 2707.82,449.39 2707.18,453.97"/>
    <poly id="10008" type="building.yes" color="255,128,128" fill="1" layer="1.00" shape="2719.23,418.82 2726.74,416.08 2729.19,423.77 2721.70,426.44 2720.31,422.14 2719.23,418.82"/>
    <poly id="10009" type="building.yes" color="255,128,128" fill="1" layer="1.00" shape="2677.24,630.26 2677.50,624.19 2682.00,624.27 2686.69,624.44 2686.69,627.63 2684.80,627.66 2684.81,630.04 2686.05,630.11 2685.95,632.08 2684.06,632.05 2682.83,631.99 2682.80,630.52 2679.93,630.40 2677.24,630.26"/>
    <poly id="10010" type="building.yes" color="255,128,128" fill="1" layer="1.00" shape="2688.33,627.04 2688.31,623.86 2691.27,623.88 2691.43,621.56 2695.95,621.89 2695.89,625.41 2697.05,625.49 2697.09,628.35 2692.34,628.30 2692.16,627.08 2688.33,627.04"/>
    <poly id="10011" type="building.yes" color="255,128,128" fill="1" layer="1.00" shape="2699.70,113.65 2703.70,113.77 2703.70,121.38 2699.60,121.36 2699.70,113.65"/>
    <poly id="10012" type="building.yes" color="255,128,128" fill="1" layer="1.00" shape="2676.06,253.48 2670.13,249.85 2670.42,249.33 2664.25,245.63 2667.24,240.81 2679.25,248.02 2676.06,253.48"/>
    <poly id="10013" type="building.yes" color="255,128,128" fill="1" layer="1.00" shape="2616.13,418.41 2614.24,418.10 2612.67,416.82 2614.15,412.54 2617.91,413.56 2616.13,418.41"/>
    <poly id="10014" type="building.yes" color="255,128,128" fill="1" layer="1.00" shape="2638.74,527.42 2633.88,539.82 2632.29,543.79 2625.46,541.10 2610.65,534.84 2613.44,528.33 2627.38,534.01 2627.24,534.26 2631.89,536.21 2633.41,532.48 2628.92,530.45 2631.20,524.79 2636.62,527.24 2637.23,526.63 2638.74,527.42"/>
    <poly id="10015" type="building.yes" color="255,128,128" fill="1" layer="1.00" shape="2627.20,434.57 2626.75,437.02 2622.65,437.16 2623.30,433.91 2622.63,433.64 2623.26,431.14 2621.84,430.74 2622.91,426.41 2625.90,427.09 2628.89,427.68 2627.24,433.95 2627.20,434.57"/>
    <poly id="10016" type="building.yes" color="255,128,128" fill="1" layer="1.00" shape="2677.58,670.03 2678.49,662.31 2683.79,662.98 2683.59,664.79 2695.20,666.62 2694.42,672.67 2677.58,670.03"/>
    <poly id="10017" type="building.yes" color="255,128,128" fill="1" layer="1.00" shape="2619.18,697.33 2622.46,697.58 2622.74,694.87 2626.37,695.16 2626.11,698.29 2632.88,702.22 2630.78,705.81 2627.34,703.69 2626.40,703.20 2625.54,704.74 2618.78,700.90 2619.04,697.76 2619.18,697.33"/>
    <poly id="10018" type="building.yes" color="255,128,128" fill="1" layer="1.00" shape="3537.90,667.31 3540.66,666.47 3542.21,671.75 3541.00,672.18 3541.43,673.46 3539.83,673.98 3537.90,667.31"/>
    <poly id="10019" type="building.yes" color="255,128,128" fill="1" layer="1.00" shape="2851.80,383.86 2855.31,386.31 2852.52,389.85 2851.64,391.07 2849.32,394.02 2844.71,390.44 2846.65,388.07 2847.53,388.76 2849.56,386.31 2851.80,383.86"/>
    <poly id="10020" type="building.yes" color="255,128,128" fill="1" layer="1.00" shape="3552.14,695.28 3549.45,695.96 3549.00,694.28 3547.15,694.74 3546.31,691.19 3545.50,691.25 3544.78,688.29 3552.89,686.20 3553.64,689.51 3552.75,689.81 3553.56,692.94 3552.14,695.28"/>
    <poly id="10021" type="building.yes" color="255,128,128" fill="1" layer="1.00" shape="3440.96,347.19 3437.21,345.84 3438.76,341.38 3436.99,340.78 3435.32,337.14 3435.94,335.46 3434.32,334.76 3435.75,330.79 3440.05,332.44 3440.48,331.59 3444.77,333.23 3441.36,342.25 3442.72,342.97 3442.18,344.40 3440.96,347.19"/>
    <poly id="10022" type="building.yes" color="255,128,128" fill="1" layer="1.00" shape="3509.74,289.37 3515.51,291.42 3515.11,292.68 3519.08,294.18 3518.95,294.61 3521.15,295.59 3521.84,293.81 3523.10,294.29 3525.46,295.09 3519.23,302.69 3512.16,300.27 3510.34,305.41 3504.17,303.00 3508.82,291.68 3509.74,289.37"/>
    <poly id="10023" type="building.yes" color="255,128,128" fill="1" layer="1.00" shape="3496.56,252.41 3502.95,254.28 3502.48,255.71 3506.68,257.12 3504.24,264.91 3498.12,263.09 3498.96,260.07 3496.51,259.11 3495.84,261.05 3495.29,261.42 3494.03,260.94 3493.42,260.41 3493.80,259.06 3494.84,258.66 3491.07,257.48 3491.24,256.48 3489.30,255.88 3488.54,254.39 3488.84,252.89 3490.76,252.25 3492.44,252.79 3496.11,253.74 3496.56,252.41"/>
    <poly id="10024" type="building.yes" color="255,128,128" fill="1" layer="1.00" shape="3517.61,327.42 3518.04,329.22 3527.29,327.13 3528.43,332.46 3514.82,335.61 3513.13,328.36 3517.61,327.42"/>
    <poly id="10025" type="building.yes" color="255,128,128" fill="1" layer="1.00" shape="2605.36,346.33 2605.16,347.35 2607.83,347.97 2606.64,352.90 2603.98,352.28 2603.80,353.18 2600.38,352.38 2600.55,351.39 2597.97,350.76 2598.98,345.86 2601.66,346.48 2601.83,345.48 2605.36,346.33"/>
    <poly id="10026" type="building.yes" color="255,128,128" fill="1" layer="1.00" shape="2555.31,369.37 2561.37,367.81 2565.40,366.85 2565.27,366.29 2565.24,365.80 2565.36,365.29 2565.49,364.88 2565.61,364.38 2565.92,364.03 2566.21,363.59 2566.53,363.33 2566.92,363.04 2567.39,362.84 2567.78,362.66 2568.27,362.54 2568.76,362.58 2569.00,362.56 2569.67,362.68 2570.18,362.88 2570.60,363.10 2570.95,363.40 2571.31,363.79 2571.40,363.93 2571.68,364.33 2571.88,364.80 2571.99,365.12 2575.91,364.00 2582.24,362.15 2585.27,374.04 2585.59,373.94 2586.77,374.41 2587.27,376.67 2586.52,377.71 2586.12,377.83 2587.07,381.60 2576.62,384.28 2570.35,385.89 2559.90,388.55 2558.96,384.77 2558.56,384.88 2557.45,384.31 2556.87,382.07 2557.62,381.03 2558.02,380.93 2555.31,369.37"/>
    <poly id="10027" type="building.yes" color="255,128,128" fill="1" layer="1.00" shape="2578.83,304.10 2576.97,304.61 2575.61,304.97 2575.56,304.39 2571.05,305.39 2570.63,304.11 2568.39,304.76 2564.37,305.81 2563.30,302.45 2562.41,302.60 2561.37,298.57 2564.99,297.65 2571.82,295.99 2577.53,294.57 2579.87,303.89 2578.83,304.10"/>
    <poly id="10028" type="building.yes" color="255,128,128" fill="1" layer="1.00" shape="2596.05,436.06 2598.75,436.61 2601.49,436.97 2603.06,438.25 2603.63,439.36 2603.52,441.16 2602.89,442.44 2601.33,443.54 2599.72,443.90 2598.28,443.35 2597.90,444.78 2584.99,441.90 2586.66,433.67 2596.05,436.06"/>
    <poly id="10029" type="building.yes" color="255,128,128" fill="1" layer="1.00" shape="2552.71,429.35 2552.58,426.73 2552.38,421.91 2566.36,421.60 2566.58,432.07 2562.58,432.19 2562.64,433.09 2556.50,433.23 2556.44,432.25 2552.67,432.28 2552.71,429.35"/>
    <poly id="10030" type="building.yes" color="255,128,128" fill="1" layer="1.00" shape="2556.88,516.05 2559.06,512.51 2567.70,517.43 2565.68,521.18 2556.88,516.05"/>
    <poly id="10031" type="building.yes" color="255,128,128" fill="1" layer="1.00" shape="2589.15,510.89 2588.67,512.67 2582.30,510.70 2583.97,504.67 2590.43,506.65 2589.15,510.89"/>
    <poly id="10032" type="building.yes" color="255,128,128" fill="1" layer="1.00" shape="2629.25,670.39 2627.88,673.83 2623.07,671.90 2618.57,671.98 2618.55,667.40 2620.77,667.49 2620.88,663.54 2622.69,663.57 2624.94,664.05 2626.54,664.66 2626.07,666.02 2629.02,667.19 2627.84,669.89 2629.25,670.39"/>
    <poly id="10033" type="building.yes" color="255,128,128" fill="1" layer="1.00" shape="2592.45,482.95 2592.88,483.77 2591.95,484.15 2591.60,484.83 2591.89,485.52 2592.49,486.04 2593.94,489.30 2595.87,490.36 2598.72,488.87 2599.32,489.45 2600.54,489.52 2599.87,491.29 2602.66,492.48 2602.38,493.15 2601.30,496.09 2600.47,498.21 2587.29,492.89 2591.00,483.36 2592.45,482.95"/>
    <poly id="10034" type="building.yes" color="255,128,128" fill="1" layer="1.00" shape="2552.01,250.07 2549.10,251.51 2547.47,252.28 2544.12,245.81 2553.67,241.00 2555.10,243.68 2554.10,244.50 2555.69,248.22 2552.01,250.07"/>
    <poly id="10035" type="building.yes" color="255,128,128" fill="1" layer="1.00" shape="2625.86,582.96 2625.78,583.40 2623.97,586.92 2622.18,586.05 2621.60,585.76 2617.25,594.37 2612.07,591.97 2616.41,583.13 2617.51,583.71 2619.58,579.61 2625.86,582.96"/>
    <poly id="10036" type="building.yes" color="255,128,128" fill="1" layer="1.00" shape="2769.50,861.53 2769.21,857.83 2773.25,858.17 2773.39,856.86 2778.67,857.28 2782.55,857.65 2782.70,856.40 2784.68,856.58 2787.90,856.83 2792.76,857.28 2797.04,857.61 2797.14,858.84 2801.66,859.15 2810.98,859.92 2810.83,861.33 2816.02,861.68 2816.23,858.96 2820.59,859.29 2819.85,865.80 2822.24,865.96 2822.99,859.60 2828.59,860.08 2826.54,877.44 2819.21,876.84 2814.83,876.42 2815.01,872.15 2810.31,871.78 2810.13,875.97 2805.10,875.52 2805.19,871.25 2800.83,870.93 2800.64,875.04 2799.16,874.90 2795.53,874.52 2795.63,873.69 2791.84,873.40 2779.79,872.19 2777.06,871.81 2777.04,870.42 2777.65,862.19 2769.50,861.53"/>
    <poly id="10037" type="building.yes" color="255,128,128" fill="1" layer="1.00" shape="2693.69,706.15 2700.49,707.39 2699.18,713.95 2689.79,712.11 2690.43,708.62 2693.07,708.92 2693.69,706.15"/>
    <poly id="10038" type="building.yes" color="255,128,128" fill="1" layer="1.00" shape="2766.32,803.57 2769.47,802.94 2772.45,802.39 2773.01,805.46 2780.85,804.05 2781.05,805.59 2781.37,807.69 2783.31,807.39 2783.74,812.01 2774.43,813.46 2773.38,807.15 2767.08,808.27 2766.32,803.57"/>
    <poly id="10039" type="building.yes" color="255,128,128" fill="1" layer="1.00" shape="2812.93,763.89 2809.31,764.49 2806.97,764.90 2800.18,766.15 2799.70,764.06 2812.70,761.61 2812.93,763.89"/>
    <poly id="10040" type="building.yes" color="255,128,128" fill="1" layer="1.00" shape="2748.01,819.07 2746.83,811.68 2754.80,811.01 2755.85,818.46 2748.01,819.07"/>
    <poly id="10041" type="building.yes" color="255,128,128" fill="1" layer="1.00" shape="2712.11,715.75 2712.29,714.78 2715.93,715.24 2714.64,722.13 2711.41,721.65 2711.04,722.16 2707.89,721.57 2708.44,718.02 2711.59,718.60 2712.11,715.75"/>
    <poly id="10042" type="building.yes" color="255,128,128" fill="1" layer="1.00" shape="3201.02,697.87 3195.79,698.64 3194.92,692.48 3200.11,691.68 3201.02,697.87"/>
    <poly id="10043" type="building.yes" color="255,128,128" fill="1" layer="1.00" shape="2733.23,718.72 2730.76,718.88 2727.97,718.92 2727.86,720.65 2724.75,720.73 2724.75,712.95 2728.42,712.83 2728.38,712.26 2731.58,712.27 2731.62,712.92 2735.38,712.88 2735.25,718.79 2733.23,718.72"/>
    <poly id="10044" type="building.yes" color="255,128,128" fill="1" layer="1.00" shape="2741.27,779.52 2740.68,775.40 2743.77,775.09 2743.67,774.77 2748.06,774.27 2748.08,774.68 2750.36,774.35 2751.05,774.96 2751.37,778.03 2752.02,778.06 2752.22,781.74 2749.46,782.03 2749.45,783.02 2743.92,783.60 2743.71,781.97 2743.54,779.53 2741.27,779.52"/>
    <poly id="10045" type="building.yes" color="255,128,128" fill="1" layer="1.00" shape="2748.17,716.87 2742.57,716.84 2742.56,713.47 2747.88,713.41 2748.17,716.87"/>
    <poly id="10046" type="building.yes" color="255,128,128" fill="1" layer="1.00" shape="2707.78,743.96 2707.90,738.16 2715.44,738.34 2715.32,739.91 2717.73,740.04 2717.66,743.62 2715.35,743.58 2715.39,744.24 2709.48,744.03 2707.78,743.96"/>
    <poly id="10047" type="building.yes" color="255,128,128" fill="1" layer="1.00" shape="2805.91,756.98 2804.94,749.56 2814.88,748.74 2815.58,755.97 2805.91,756.98"/>
    <poly id="10048" type="building.yes" color="255,128,128" fill="1" layer="1.00" shape="2811.20,619.99 2809.03,620.48 2809.65,624.44 2805.12,625.19 2804.52,621.48 2802.34,621.89 2801.58,617.27 2810.28,615.39 2811.20,619.99"/>
    <poly id="10049" type="building.yes" color="255,128,128" fill="1" layer="1.00" shape="2789.81,478.47 2785.41,479.00 2785.62,481.79 2778.77,482.95 2778.01,477.02 2777.42,475.75 2777.27,473.81 2783.60,471.84 2788.00,470.54 2789.81,478.47"/>
    <poly id="10050" type="building.yes" color="255,128,128" fill="1" layer="1.00" shape="2737.20,627.40 2737.10,626.51 2733.50,626.62 2733.39,618.67 2740.43,618.56 2740.56,619.20 2743.74,619.04 2743.87,627.31 2737.20,627.40"/>
    <poly id="10051" type="building.yes" color="255,128,128" fill="1" layer="1.00" shape="2780.56,501.30 2780.17,499.90 2779.61,495.69 2785.45,495.15 2786.36,501.37 2780.56,501.30"/>
    <poly id="10052" type="building.yes" color="255,128,128" fill="1" layer="1.00" shape="2787.67,501.23 2786.74,495.02 2792.27,494.45 2792.42,496.65 2792.87,501.45 2787.67,501.23"/>
    <poly id="10053" type="building.yes" color="255,128,128" fill="1" layer="1.00" shape="2767.24,526.94 2768.23,522.28 2773.87,523.25 2773.18,528.14 2768.01,527.05 2767.24,526.94"/>
    <poly id="10054" type="building.yes" color="255,128,128" fill="1" layer="1.00" shape="2812.55,559.41 2805.17,556.77 2792.64,552.39 2795.03,546.06 2807.34,550.79 2808.64,547.42 2813.35,549.11 2813.16,550.85 2812.55,559.41"/>
    <poly id="10055" type="building.yes" color="255,128,128" fill="1" layer="1.00" shape="2673.53,367.43 2674.91,362.27 2680.86,364.04 2681.34,362.86 2685.43,363.86 2683.38,370.33 2673.53,367.43"/>
    <poly id="10056" type="building.yes" color="255,128,128" fill="1" layer="1.00" shape="2703.83,293.13 2703.68,280.55 2731.23,281.92 2748.96,282.56 2749.67,265.72 2750.71,244.84 2763.06,245.62 2761.56,283.50 2754.09,283.23 2753.84,287.52 2754.29,287.96 2753.89,295.70 2749.03,295.50 2717.47,294.02 2703.83,293.13"/>
    <poly id="10057" type="building.yes" color="255,128,128" fill="1" layer="1.00" shape="2750.13,346.25 2750.24,347.49 2746.93,348.07 2746.54,347.28 2745.23,347.38 2744.96,344.70 2746.17,344.53 2745.28,339.27 2755.40,337.61 2756.44,343.84 2752.15,344.65 2750.06,345.05 2750.13,346.25"/>
    <poly id="10058" type="building.yes" color="255,128,128" fill="1" layer="1.00" shape="2663.98,230.04 2661.24,231.56 2659.81,228.95 2656.72,230.33 2653.93,224.81 2654.39,224.44 2654.17,223.65 2654.64,223.36 2654.49,222.46 2661.84,218.80 2666.23,227.16 2663.48,228.68 2663.98,230.04"/>
    <poly id="10059" type="building.yes" color="255,128,128" fill="1" layer="1.00" shape="2658.40,148.13 2658.02,145.11 2657.92,140.46 2668.16,139.44 2668.20,137.79 2674.23,137.42 2674.25,141.03 2672.96,141.21 2673.06,145.78 2675.86,145.98 2675.88,145.24 2680.66,145.54 2680.44,148.18 2671.68,148.09 2671.61,147.19 2658.40,148.13"/>
    <poly id="10060" type="building.yes" color="255,128,128" fill="1" layer="1.00" shape="2663.90,279.10 2662.02,277.84 2660.92,278.40 2659.87,278.57 2659.40,277.87 2659.07,276.83 2666.28,265.89 2670.60,268.92 2663.90,279.10"/>
    <poly id="10061" type="building.yes" color="255,128,128" fill="1" layer="1.00" shape="2805.01,694.96 2804.97,692.05 2802.44,692.08 2801.70,692.05 2801.88,685.74 2806.31,685.89 2806.40,682.62 2814.93,682.95 2816.40,678.50 2821.01,679.87 2819.08,685.84 2818.88,689.62 2819.37,689.58 2819.37,690.72 2818.80,690.76 2818.53,695.78 2805.01,694.96"/>
    <poly id="10062" type="building.yes" color="255,128,128" fill="1" layer="1.00" shape="2740.10,670.99 2722.59,671.20 2722.44,664.75 2726.02,664.48 2726.11,662.42 2733.30,662.21 2733.29,664.19 2736.64,664.09 2736.66,661.14 2746.14,660.84 2746.11,659.37 2746.09,658.06 2750.26,657.90 2750.28,662.49 2747.34,662.63 2746.11,662.65 2746.22,667.39 2745.65,667.42 2745.60,671.04 2740.10,670.99"/>
    <poly id="10063" type="building.yes" color="255,128,128" fill="1" layer="1.00" shape="2739.41,697.24 2739.59,696.17 2738.52,696.08 2739.01,692.77 2731.57,693.01 2731.36,685.81 2739.30,685.71 2739.50,691.75 2744.13,691.33 2743.50,698.01 2739.41,697.24"/>
    <poly id="10064" type="building.yes" color="255,128,128" fill="1" layer="1.00" shape="2725.62,692.03 2719.28,692.14 2719.30,685.76 2725.61,685.69 2725.62,692.03"/>
    <poly id="10065" type="building.yes" color="255,128,128" fill="1" layer="1.00" shape="2705.52,601.60 2705.69,606.72 2701.69,606.93 2701.64,608.25 2700.32,608.35 2700.30,606.96 2695.64,607.06 2695.57,603.87 2696.70,603.71 2696.74,602.21 2696.78,600.68 2695.59,600.71 2695.56,599.37 2700.39,599.41 2700.39,600.48 2704.08,600.45 2705.63,600.41 2705.52,601.60"/>
    <poly id="10066" type="building.yes" color="255,128,128" fill="1" layer="1.00" shape="2694.76,600.31 2695.95,600.29 2695.91,601.81 2694.61,601.82 2694.76,600.31"/>
    <poly id="10067" type="building.yes" color="255,128,128" fill="1" layer="1.00" shape="2903.10,702.25 2903.30,696.82 2904.92,696.70 2905.11,693.74 2914.33,694.27 2914.87,696.04 2914.98,696.44 2915.32,697.72 2913.75,697.67 2913.49,702.86 2903.10,702.25"/>
    <poly id="10068" type="building.yes" color="255,128,128" fill="1" layer="1.00" shape="2833.08,728.16 2833.26,722.26 2834.82,722.30 2834.92,721.47 2835.91,720.42 2841.41,720.57 2841.73,719.41 2851.49,719.73 2852.75,721.12 2852.80,721.77 2856.49,721.82 2856.33,726.25 2843.51,725.74 2843.44,726.98 2838.45,727.03 2838.40,728.51 2833.08,728.16"/>
    <poly id="10069" type="building.yes" color="255,128,128" fill="1" layer="1.00" shape="2882.83,867.57 2881.96,863.52 2881.81,862.29 2893.03,859.68 2893.75,863.50 2893.98,864.98 2882.83,867.57"/>
    <poly id="10070" type="building.yes" color="255,128,128" fill="1" layer="1.00" shape="2870.75,872.14 2869.94,872.33 2868.88,866.93 2879.86,864.41 2880.73,868.45 2880.81,869.80 2870.75,872.14"/>
    <poly id="10071" type="building.yes" color="255,128,128" fill="1" layer="1.00" shape="2895.34,862.81 2894.62,858.99 2894.39,857.52 2899.72,856.38 2900.93,861.54 2895.34,862.81"/>
    <poly id="10072" type="building.yes" color="255,128,128" fill="1" layer="1.00" shape="2834.32,766.49 2835.67,765.03 2843.02,763.57 2850.10,762.06 2849.98,760.36 2857.97,758.76 2859.06,763.44 2862.29,762.86 2862.24,762.21 2863.53,761.95 2863.74,762.59 2866.32,761.99 2866.95,761.70 2866.91,761.12 2868.37,760.94 2868.49,761.42 2871.55,760.79 2871.40,759.80 2873.01,757.31 2877.44,756.24 2878.94,763.17 2875.72,763.98 2857.62,768.21 2838.60,772.43 2834.54,770.77 2834.32,766.49"/>
    <poly id="10073" type="building.yes" color="255,128,128" fill="1" layer="1.00" shape="2864.53,823.39 2864.07,821.97 2868.40,820.83 2869.82,825.56 2871.60,825.26 2872.25,828.41 2866.48,830.07 2865.78,828.39 2860.71,829.68 2859.79,826.14 2864.85,824.79 2864.53,823.39"/>
    <poly id="10074" type="building.yes" color="255,128,128" fill="1" layer="1.00" shape="2871.28,743.07 2870.48,738.09 2873.29,737.54 2874.93,738.49 2875.06,739.21 2884.81,738.08 2885.61,744.40 2878.89,745.39 2878.25,742.32 2871.28,743.07"/>
    <poly id="10075" type="building.yes" color="255,128,128" fill="1" layer="1.00" shape="2889.10,783.65 2874.38,786.55 2874.15,785.90 2889.21,782.48 2889.10,783.65"/>
    <poly id="10076" type="building.yes" color="255,128,128" fill="1" layer="1.00" shape="2878.67,158.02 2878.11,161.27 2875.70,160.71 2873.92,171.73 2868.85,170.81 2869.10,168.28 2870.83,157.83 2871.74,154.79 2878.67,158.02"/>
    <poly id="10077" type="building.yes" color="255,128,128" fill="1" layer="1.00" shape="2913.84,734.05 2909.64,735.45 2909.92,736.98 2901.59,739.57 2899.28,732.70 2907.75,729.94 2907.94,730.25 2910.24,729.42 2910.35,729.75 2912.76,729.07 2912.31,727.38 2922.56,724.24 2925.03,723.48 2925.15,723.87 2927.62,723.04 2928.03,724.00 2930.35,723.41 2930.47,723.89 2933.13,723.28 2933.25,723.84 2935.99,723.14 2937.18,727.06 2929.90,729.42 2929.80,729.10 2925.40,730.50 2923.55,731.04 2923.87,731.92 2915.70,734.41 2915.40,733.62 2913.84,734.05"/>
    <poly id="10078" type="building.yes" color="255,128,128" fill="1" layer="1.00" shape="2886.54,126.33 2881.25,127.11 2881.40,128.08 2879.05,128.42 2878.91,127.62 2877.36,127.80 2876.22,120.19 2887.08,118.64 2887.91,124.50 2886.40,124.62 2886.54,126.33"/>
    <poly id="10079" type="building.yes" color="255,128,128" fill="1" layer="1.00" shape="2876.62,212.56 2873.62,213.74 2869.12,212.68 2876.70,202.45 2881.46,205.78 2876.62,212.56"/>
    <poly id="10080" type="building.yes" color="255,128,128" fill="1" layer="1.00" shape="2882.88,220.45 2883.23,225.72 2881.66,226.57 2877.47,222.05 2878.79,220.07 2881.70,219.53 2882.88,220.45"/>
    <poly id="10081" type="building.yes" color="255,128,128" fill="1" layer="1.00" shape="2917.90,482.37 2915.99,487.82 2915.12,490.06 2914.00,486.63 2915.33,483.59 2909.42,481.17 2911.37,476.67 2916.87,478.97 2917.90,482.37"/>
    <poly id="10082" type="building.yes" color="255,128,128" fill="1" layer="1.00" shape="2918.36,484.31 2921.61,491.74 2920.98,493.19 2924.98,495.25 2921.11,503.58 2918.15,502.33 2917.64,503.19 2913.40,501.38 2914.74,498.41 2913.57,497.76 2915.08,493.60 2915.79,493.83 2916.20,493.79 2915.57,491.98 2916.45,489.75 2918.36,484.31"/>
    <poly id="10083" type="building.yes" color="255,128,128" fill="1" layer="1.00" shape="2917.24,396.90 2916.37,398.10 2914.41,397.03 2915.21,395.66 2917.24,396.90"/>
    <poly id="10084" type="building.yes" color="255,128,128" fill="1" layer="1.00" shape="2890.86,303.56 2891.20,296.14 2897.96,295.71 2898.30,301.18 2898.39,302.48 2890.86,303.56"/>
    <poly id="10085" type="building.yes" color="255,128,128" fill="1" layer="1.00" shape="2886.98,413.80 2888.45,411.45 2890.72,413.04 2894.64,416.18 2893.00,418.28 2886.98,413.80"/>
    <poly id="10086" type="building.yes" color="255,128,128" fill="1" layer="1.00" shape="2853.73,382.90 2855.65,380.20 2861.73,372.96 2865.86,376.74 2868.54,379.48 2865.20,381.95 2865.49,382.50 2864.24,383.33 2864.77,383.95 2863.69,384.76 2863.33,384.30 2861.85,385.39 2862.22,385.94 2860.20,387.40 2857.24,385.36 2853.73,382.90"/>
    <poly id="10087" type="building.yes" color="255,128,128" fill="1" layer="1.00" shape="2858.77,364.00 2864.17,357.56 2865.61,355.89 2866.83,356.86 2868.31,358.06 2870.88,355.16 2870.34,354.63 2872.01,352.79 2873.84,354.29 2875.51,352.61 2876.40,353.44 2879.18,350.20 2878.22,349.29 2881.84,345.17 2884.03,342.71 2887.75,345.30 2888.85,343.75 2894.08,347.07 2890.03,354.03 2888.35,353.44 2881.79,360.91 2879.44,359.02 2867.98,372.28 2863.83,368.50 2862.44,367.10 2860.15,365.49 2858.77,364.00"/>
    <poly id="10088" type="building.yes" color="255,128,128" fill="1" layer="1.00" shape="2896.49,354.10 2900.54,347.16 2901.46,346.21 2908.07,350.21 2909.18,348.73 2911.25,350.06 2910.31,351.68 2913.41,353.74 2914.08,352.87 2916.31,354.26 2918.29,351.17 2920.44,352.39 2920.95,351.70 2924.41,354.14 2932.92,359.47 2931.38,362.25 2926.79,369.56 2925.95,370.24 2917.52,364.82 2918.24,363.52 2912.91,360.08 2910.75,363.11 2905.42,359.66 2904.74,360.53 2895.97,354.97 2896.49,354.10"/>
    <poly id="10089" type="building.yes" color="255,128,128" fill="1" layer="1.00" shape="2930.37,374.33 2934.96,367.02 2940.57,370.43 2940.05,372.27 2943.14,374.09 2941.60,377.65 2939.37,382.80 2938.01,382.18 2936.37,385.41 2937.83,386.28 2936.85,388.49 2936.28,389.75 2941.97,393.51 2945.07,395.48 2939.98,402.99 2933.79,399.03 2933.93,398.70 2928.69,395.49 2922.34,391.53 2924.62,388.10 2925.65,388.84 2928.44,384.53 2927.82,384.01 2931.32,374.89 2930.37,374.33"/>
    <poly id="10090" type="building.yes" color="255,128,128" fill="1" layer="1.00" shape="2822.24,378.25 2812.89,372.32 2819.39,362.59 2823.32,355.93 2832.27,361.87 2833.68,363.11 2832.73,364.49 2827.52,371.60 2826.65,370.93 2823.77,375.07 2824.64,375.74 2822.24,378.25"/>
    <poly id="10091" type="building.yes" color="255,128,128" fill="1" layer="1.00" shape="2807.86,384.69 2814.76,389.07 2813.73,391.43 2811.85,394.69 2809.24,402.43 2802.78,400.38 2805.17,393.14 2807.86,384.69"/>
    <poly id="10092" type="building.yes" color="255,128,128" fill="1" layer="1.00" shape="2824.94,351.93 2826.87,349.49 2824.97,348.07 2824.80,347.84 2826.97,344.71 2830.40,340.03 2833.90,336.26 2843.84,344.13 2840.82,348.61 2839.71,348.12 2838.07,350.12 2837.38,349.92 2836.68,351.29 2837.03,351.76 2835.69,353.42 2836.58,354.34 2833.54,358.54 2824.58,352.59 2824.94,351.93"/>
    <poly id="10093" type="building.yes" color="255,128,128" fill="1" layer="1.00" shape="2846.77,341.12 2836.83,333.24 2844.66,324.39 2849.04,319.56 2851.10,317.25 2855.38,320.77 2860.74,325.60 2854.93,332.19 2853.97,331.52 2852.53,332.95 2851.86,332.83 2850.60,334.48 2850.87,334.95 2849.45,336.62 2850.17,337.46 2846.77,341.12"/>
    <poly id="10094" type="building.yes" color="255,128,128" fill="1" layer="1.00" shape="2815.40,259.39 2814.27,257.16 2802.26,258.64 2801.29,248.96 2813.14,247.49 2825.28,239.22 2844.19,225.84 2849.95,233.84 2841.85,239.36 2843.09,241.73 2838.82,244.83 2837.50,242.65 2825.75,250.73 2819.54,255.29 2820.13,257.70 2815.40,259.39"/>
    <poly id="10095" type="building.yes" color="255,128,128" fill="1" layer="1.00" shape="2850.13,609.35 2849.87,606.32 2852.56,606.12 2852.44,602.36 2865.56,601.38 2865.99,608.22 2850.13,609.35"/>
    <poly id="10096" type="building.yes" color="255,128,128" fill="1" layer="1.00" shape="2799.38,197.79 2800.30,194.38 2799.34,193.71 2801.03,188.92 2811.94,193.50 2811.16,196.10 2811.45,196.73 2810.41,199.18 2808.71,198.42 2807.43,201.13 2799.38,197.79"/>
    <poly id="10097" type="building.yes" color="255,128,128" fill="1" layer="1.00" shape="2870.81,483.66 2870.66,481.27 2869.75,481.26 2869.91,480.02 2871.21,476.73 2876.37,478.87 2877.37,476.84 2879.81,477.81 2876.64,484.59 2870.81,483.66"/>
    <poly id="10098" type="building.yes" color="255,128,128" fill="1" layer="1.00" shape="2850.53,479.02 2847.67,470.76 2846.92,467.13 2850.42,465.89 2852.01,465.28 2854.95,473.82 2853.52,474.34 2854.09,476.59 2852.47,477.86 2850.53,479.02"/>
    <poly id="10099" type="building.yes" color="255,128,128" fill="1" layer="1.00" shape="2801.17,134.12 2799.59,139.86 2796.16,138.82 2797.41,133.64 2798.12,133.26 2801.17,134.12"/>
    <poly id="10100" type="building.yes" color="255,128,128" fill="1" layer="1.00" shape="2846.92,433.62 2847.40,430.35 2850.57,423.46 2851.91,420.58 2855.49,422.52 2853.64,426.18 2855.96,427.56 2853.47,432.58 2846.92,433.62"/>
    <poly id="10101" type="building.yes" color="255,128,128" fill="1" layer="1.00" shape="2813.24,570.41 2812.49,570.49 2812.71,567.11 2813.24,570.41"/>
    <poly id="10102" type="building.yes" color="255,128,128" fill="1" layer="1.00" shape="2844.27,687.13 2842.96,678.38 2853.16,676.79 2854.33,685.72 2844.27,687.13"/>
    <poly id="10103" type="building.yes" color="255,128,128" fill="1" layer="1.00" shape="2833.81,148.56 2824.80,146.37 2824.81,145.38 2825.52,143.86 2826.52,142.96 2828.60,142.40 2835.09,144.03 2833.81,148.56"/>