<?xml version="1.0" encoding="UTF-8"?>

<!-- 
    Monaco SUMO Traffic (MoST) Scenario
    Copyright (C) 2018 
    Lara CODECA

    This program is free software: you can redistribute it and/or modify
    it under the terms of the GNU General Public License as published by
    the Free Software Foundation, either version 3 of the License, or
    (at your option) any later version.

    This program is distributed in the hope that it will be useful,
    but WITHOUT ANY WARRANTY; without even the implied warranty of
    MERCHANTABILITY or FITNESS FOR A PARTICULAR PURPOSE.  See the
    GNU General Public License for more details.

    You should have received a copy of the GNU General Public License
    along with this program.  If not, see <http://www.gnu.org/licenses/>.
-->

<additional xmlns:xsi="http://www.w3.org/2001/XMLSchema-instance" xsi:noNamespaceSchemaLocation="http://sumo.dlr.de/xsd/additional_file.xsd"> 
    <parkingArea id="22377" lane="-1347_1" startPos="13.41669308889813" endPos="18.41669308889813" roadsideCapacity="1132" friendlyPos="true"/>
    <parkingArea id="22378" lane="1283#3_1" startPos="335.07" endPos="340.07" roadsideCapacity="1230" friendlyPos="true"/>
    <parkingArea id="22379" lane="1355#0_1" startPos="20.940891621267237" endPos="25.940891621267237" roadsideCapacity="2475" friendlyPos="true"/>
    <parkingArea id="22380" lane="-1355#5_1" startPos="14.07346193028706" endPos="19.07346193028706" roadsideCapacity="2084" friendlyPos="true"/>
    <parkingArea id="22381" lane="23_1" startPos="25.472692686137236" endPos="30.472692686137236" roadsideCapacity="1956" friendlyPos="true"/>
    <parkingArea id="22382" lane="-340_1" startPos="48.829618794659794" endPos="53.829618794659794" roadsideCapacity="584" friendlyPos="true"/>
    <parkingArea id="22383" lane="984#0_1" startPos="5.0" endPos="10.0" roadsideCapacity="1964" friendlyPos="true"/>
    <parkingArea id="22384" lane="429#1_0" startPos="109.22758588030952" endPos="114.22758588030952" roadsideCapacity="1395" friendlyPos="true"/>
    <parkingArea id="22385" lane="-1246#2_1" startPos="137.58108903166087" endPos="142.58108903166087" roadsideCapacity="1003" friendlyPos="true"/>
    <parkingArea id="22386" lane="-994_1" startPos="29.113181377352007" endPos="34.11318137735201" roadsideCapacity="1882" friendlyPos="true"/>
    <parkingArea id="22387" lane="-1355#5_1" startPos="50.64906787660907" endPos="55.64906787660907" roadsideCapacity="2282" friendlyPos="true"/>
    <parkingArea id="22388" lane="-301_1" startPos="13.164430931465851" endPos="18.16443093146585" roadsideCapacity="2312" friendlyPos="true"/>
    <parkingArea id="22389" lane="1283#4_1" startPos="23.037797640295466" endPos="28.037797640295466" roadsideCapacity="2034" friendlyPos="true"/>
    <parkingArea id="22390" lane="1286#1_1" startPos="127.53999999999999" endPos="132.54" roadsideCapacity="1307" friendlyPos="true"/>
    <parkingArea id="22391" lane="456_1" startPos="214.57407889254637" endPos="219.57407889254637" roadsideCapacity="1648" friendlyPos="true"/>
    <parkingArea id="22392" lane="437_1" startPos="276.3040589185772" endPos="281.3040589185772" roadsideCapacity="1811" friendlyPos="true"/>
    <parkingArea id="22393" lane="1570#1_0" startPos="306.1347949002278" endPos="311.1347949002278" roadsideCapacity="828" friendlyPos="true"/>
    <parkingArea id="22394" lane="650#1_1" startPos="147.7255406633681" endPos="152.7255406633681" roadsideCapacity="300" friendlyPos="true"/>
    <parkingArea id="22395" lane="846_1" startPos="33.50594324431296" endPos="38.50594324431295" roadsideCapacity="669" friendlyPos="true"/>
    <parkingArea id="22396" lane="-1388_1" startPos="5.0" endPos="10.0" roadsideCapacity="738" friendlyPos="true"/>
    <parkingArea id="22397" lane="429#1_0" startPos="57.96356340805601" endPos="62.96356340805601" roadsideCapacity="590" friendlyPos="true"/>
    <parkingArea id="22398" lane="922#3_1" startPos="382.5388452359943" endPos="387.5388452359943" roadsideCapacity="328" friendlyPos="true"/>
    <parkingArea id="22399" lane="-392#0_1" startPos="362.3191857892423" endPos="367.3191857892423" roadsideCapacity="1721" friendlyPos="true"/>
    <parkingArea id="22400" lane="-844_1" startPos="127.47173727400826" endPos="132.47173727400826" roadsideCapacity="1436" friendlyPos="true"/>
    <parkingArea id="22401" lane="930#0_1" startPos="21.4622646970311" endPos="26.4622646970311" roadsideCapacity="1811" friendlyPos="true"/>
    <parkingArea id="22402" lane="222_1" startPos="106.4014244547489" endPos="111.4014244547489" roadsideCapacity="313" friendlyPos="true"/>
    <parkingArea id="22403" lane="1361#1_1" startPos="64.64650316526253" endPos="69.64650316526253" roadsideCapacity="1105" friendlyPos="true"/>
    <parkingArea id="22404" lane="650#1_1" startPos="261.87753274555155" endPos="266.87753274555155" roadsideCapacity="2287" friendlyPos="true"/>
    <parkingArea id="22405" lane="310#3_1" startPos="405.7770662423221" endPos="410.7770662423221" roadsideCapacity="2054" friendlyPos="true"/>
    <parkingArea id="22406" lane="310#3_1" startPos="1222.704357157249" endPos="1227.704357157249" roadsideCapacity="1368" friendlyPos="true"/>
    <parkingArea id="22407" lane="-532#0_1" startPos="1005.1614962492152" endPos="1010.1614962492152" roadsideCapacity="993" friendlyPos="true"/>
    <parkingArea id="22408" lane="-913_1" startPos="130.9995575716926" endPos="135.9995575716926" roadsideCapacity="2192" friendlyPos="true"/>
    <parkingArea id="22409" lane="1593_1" startPos="218.03550446521697" endPos="223.03550446521697" roadsideCapacity="1887" friendlyPos="true"/>
    <parkingArea id="22410" lane="-913_1" startPos="77.17042674048686" endPos="82.17042674048686" roadsideCapacity="605" friendlyPos="true"/>
    <parkingArea id="22411" lane="1404#3_1" startPos="8.18" endPos="13.18" roadsideCapacity="627" friendlyPos="true"/>
    <parkingArea id="22412" lane="563#1_1" startPos="77.57123832068388" endPos="82.57123832068389" roadsideCapacity="369" friendlyPos="true"/>
    <parkingArea id="22413" lane="1323_1" startPos="157.27357676359043" endPos="162.27357676359043" roadsideCapacity="356" friendlyPos="true"/>
    <parkingArea id="22414" lane="-1380#0_1" startPos="2247.43" endPos="2252.43" roadsideCapacity="2133" friendlyPos="true"/>
    <parkingArea id="22415" lane="969#1_1" startPos="54.68657586147191" endPos="59.68657586147191" roadsideCapacity="2205" friendlyPos="true"/>
    <parkingArea id="22416" lane="-1420#0_1" startPos="80.62464406449823" endPos="85.62464406449823" roadsideCapacity="1498" friendlyPos="true"/>
    <parkingArea id="22417" lane="-1408#7_1" startPos="46.89704215103635" endPos="51.89704215103635" roadsideCapacity="1184" friendlyPos="true"/>
    <parkingArea id="22418" lane="369#1_1" startPos="29.401589711311846" endPos="34.40158971131184" roadsideCapacity="1278" friendlyPos="true"/>
    <parkingArea id="22419" lane="-685_1" startPos="5.0" endPos="10.0" roadsideCapacity="372" friendlyPos="true"/>
    <parkingArea id="22420" lane="1412#1_1" startPos="15.547207540226228" endPos="20.54720754022623" roadsideCapacity="2245" friendlyPos="true"/>
    <parkingArea id="22421" lane="1393#1_1" startPos="6.310004901101017" endPos="11.310004901101017" roadsideCapacity="260" friendlyPos="true"/>
    <parkingArea id="22422" lane="740#1_1" startPos="46.54606806442502" endPos="51.546068064425015" roadsideCapacity="1398" friendlyPos="true"/>
    <parkingArea id="22423" lane="-1355#6_1" startPos="5.0" endPos="10.0" roadsideCapacity="1677" friendlyPos="true"/>
    <parkingArea id="22424" lane="-538#0_1" startPos="165.36" endPos="170.36" roadsideCapacity="1294" friendlyPos="true"/>
    <parkingArea id="22425" lane="829#2_1" startPos="53.90443654310708" endPos="58.90443654310708" roadsideCapacity="916" friendlyPos="true"/>
    <parkingArea id="22426" lane="-208_1" startPos="11.190178961576855" endPos="16.190178961576855" roadsideCapacity="522" friendlyPos="true"/>
    <parkingArea id="22427" lane="568_1" startPos="5.502124717848442" endPos="10.502124717848442" roadsideCapacity="496" friendlyPos="true"/>
    <parkingArea id="22428" lane="-566_1" startPos="30.39" endPos="35.39" roadsideCapacity="2347" friendlyPos="true"/>
    <parkingArea id="22429" lane="685_1" startPos="9.34" endPos="14.34" roadsideCapacity="1596" friendlyPos="true"/>
    <parkingArea id="22430" lane="567#1_1" startPos="24.051176998393228" endPos="29.051176998393228" roadsideCapacity="1718" friendlyPos="true"/>
    <parkingArea id="22431" lane="1576_1" startPos="5.0" endPos="10.0" roadsideCapacity="1585" friendlyPos="true"/>
    <parkingArea id="22432" lane="369#1_1" startPos="85.49082474243298" endPos="90.49082474243298" roadsideCapacity="1660" friendlyPos="true"/>
    <parkingArea id="22433" lane="-575#0_1" startPos="91.45198800564563" endPos="96.45198800564565" roadsideCapacity="1870" friendlyPos="true"/>
    <parkingArea id="22434" lane="-1329_1" startPos="73.81" endPos="78.81" roadsideCapacity="2290" friendlyPos="true"/>
    <parkingArea id="22435" lane="579#4_1" startPos="5.0" endPos="10.0" roadsideCapacity="618" friendlyPos="true"/>
    <parkingArea id="22436" lane="1281_1" startPos="65.68350592010086" endPos="70.68350592010086" roadsideCapacity="1118" friendlyPos="true"/>
    <parkingArea id="22437" lane="1593_1" startPos="218.03550446521697" endPos="223.03550446521697" roadsideCapacity="320" friendlyPos="true"/>
    <parkingArea id="22438" lane="740#1_1" startPos="27.329281132161956" endPos="32.32928113216195" roadsideCapacity="2140" friendlyPos="true"/>
    <parkingArea id="22439" lane="-513_1" startPos="5.0" endPos="10.0" roadsideCapacity="1668" friendlyPos="true"/>
    <parkingArea id="22440" lane="1283#0_1" startPos="25.468215222068075" endPos="30.468215222068075" roadsideCapacity="890" friendlyPos="true"/>
    <parkingArea id="22441" lane="1404#25_1" startPos="9.153433214360794" endPos="14.153433214360794" roadsideCapacity="423" friendlyPos="true"/>
    <parkingArea id="22442" lane="-655_1" startPos="42.49087965128479" endPos="47.49087965128479" roadsideCapacity="960" friendlyPos="true"/>
    <parkingArea id="22443" lane="-383_1" startPos="444.2238362946468" endPos="449.2238362946468" roadsideCapacity="2106" friendlyPos="true"/>
    <parkingArea id="22444" lane="736_1" startPos="6.052064078337777" endPos="11.052064078337777" roadsideCapacity="1656" friendlyPos="true"/>
    <parkingArea id="22445" lane="-730#1_1" startPos="12.78343031512857" endPos="17.78343031512857" roadsideCapacity="649" friendlyPos="true"/>
    <parkingArea id="22446" lane="-691#4_1" startPos="17.4" endPos="22.4" roadsideCapacity="1424" friendlyPos="true"/>
    <parkingArea id="22447" lane="930#0_1" startPos="21.4622646970311" endPos="26.4622646970311" roadsideCapacity="1877" friendlyPos="true"/>
    <parkingArea id="22448" lane="-817#1_1" startPos="50.23" endPos="55.23" roadsideCapacity="2010" friendlyPos="true"/>
    <parkingArea id="22449" lane="-291_1" startPos="54.18058961714895" endPos="59.18058961714895" roadsideCapacity="640" friendlyPos="true"/>
    <parkingArea id="22450" lane="-294#2_1" startPos="19.499893181558384" endPos="24.499893181558384" roadsideCapacity="672" friendlyPos="true"/>
    <parkingArea id="22451" lane="-282#1_1" startPos="12.649999999999999" endPos="17.65" roadsideCapacity="841" friendlyPos="true"/>
    <parkingArea id="22452" lane="-12_1" startPos="36.76" endPos="41.76" roadsideCapacity="1514" friendlyPos="true"/>
    <parkingArea id="22453" lane="1575_1" startPos="66.34042702608332" endPos="71.34042702608332" roadsideCapacity="943" friendlyPos="true"/>
    <parkingArea id="22454" lane="189#1_0" startPos="92.17624896033584" endPos="97.17624896033584" roadsideCapacity="920" friendlyPos="true"/>
    <parkingArea id="22455" lane="-816#0_1" startPos="33.55967689536296" endPos="38.55967689536296" roadsideCapacity="580" friendlyPos="true"/>
    <parkingArea id="22456" lane="-816#1_1" startPos="140.33784077658646" endPos="145.33784077658646" roadsideCapacity="719" friendlyPos="true"/>
    <parkingArea id="22457" lane="734#0_1" startPos="5.0" endPos="10.0" roadsideCapacity="721" friendlyPos="true"/>
    <parkingArea id="22458" lane="-493#0_1" startPos="52.26354526472619" endPos="57.26354526472619" roadsideCapacity="2313" friendlyPos="true"/>
    <parkingArea id="22459" lane="696_1" startPos="33.95350486405616" endPos="38.95350486405616" roadsideCapacity="1256" friendlyPos="true"/>
    <parkingArea id="22460" lane="-1491#2_1" startPos="8.184785528181608" endPos="13.184785528181608" roadsideCapacity="2130" friendlyPos="true"/>
    <parkingArea id="22461" lane="-707#1_1" startPos="354.27" endPos="359.27" roadsideCapacity="456" friendlyPos="true"/>
    <parkingArea id="22462" lane="829#2_1" startPos="53.90443654310708" endPos="58.90443654310708" roadsideCapacity="2292" friendlyPos="true"/>
    <parkingArea id="22463" lane="886_1" startPos="43.28631726081404" endPos="48.28631726081404" roadsideCapacity="1820" friendlyPos="true"/>
    <parkingArea id="22464" lane="-720_1" startPos="85.42201044528515" endPos="90.42201044528515" roadsideCapacity="344" friendlyPos="true"/>
    <parkingArea id="22466" lane="292#1_1" startPos="17.19036566445625" endPos="22.19036566445625" roadsideCapacity="1280" friendlyPos="true"/>
    <parkingArea id="22467" lane="292#2_1" startPos="5.0" endPos="10.0" roadsideCapacity="547" friendlyPos="true"/>
    <parkingArea id="22468" lane="348_1" startPos="41.15874891622474" endPos="46.15874891622474" roadsideCapacity="1908" friendlyPos="true"/>
    <parkingArea id="22469" lane="593#5_1" startPos="32.82786579136825" endPos="37.82786579136825" roadsideCapacity="2313" friendlyPos="true"/>
    <parkingArea id="22470" lane="748#1_1" startPos="22.98300646980521" endPos="27.98300646980521" roadsideCapacity="1151" friendlyPos="true"/>
    <parkingArea id="22471" lane="-730#4_1" startPos="151.7111407648532" endPos="156.7111407648532" roadsideCapacity="1915" friendlyPos="true"/>
    <parkingArea id="22472" lane="-730#4_1" startPos="60.95168667482833" endPos="65.95168667482832" roadsideCapacity="1872" friendlyPos="true"/>
    <parkingArea id="22473" lane="-604#1_1" startPos="28.063157559388475" endPos="33.06315755938847" roadsideCapacity="1706" friendlyPos="true"/>
    <parkingArea id="22474" lane="-319#0_1" startPos="64.53224137816355" endPos="69.53224137816355" roadsideCapacity="1374" friendlyPos="true"/>
    <parkingArea id="22475" lane="275_1" startPos="24.17486644765076" endPos="29.17486644765076" roadsideCapacity="2395" friendlyPos="true"/>
    <parkingArea id="22476" lane="526_1" startPos="5.0" endPos="10.0" roadsideCapacity="2423" friendlyPos="true"/>
    <parkingArea id="22477" lane="-519#0_1" startPos="69.72888050314742" endPos="74.72888050314742" roadsideCapacity="407" friendlyPos="true"/>
    <parkingArea id="22478" lane="-868_1" startPos="5.0" endPos="10.0" roadsideCapacity="1982" friendlyPos="true"/>
    <parkingArea id="22479" lane="-589_1" startPos="5.0" endPos="10.0" roadsideCapacity="1726" friendlyPos="true"/>
    <parkingArea id="22480" lane="-589_1" startPos="21.325492649680903" endPos="26.325492649680903" roadsideCapacity="858" friendlyPos="true"/>
    <parkingArea id="22481" lane="-499#1_1" startPos="50.58" endPos="55.58" roadsideCapacity="981" friendlyPos="true"/>
    <parkingArea id="22482" lane="-1389#1_1" startPos="42.24807998589867" endPos="47.24807998589867" roadsideCapacity="421" friendlyPos="true"/>
    <parkingArea id="22483" lane="-1246#2_1" startPos="197.76813704024048" endPos="202.76813704024048" roadsideCapacity="1252" friendlyPos="true"/>
    <parkingArea id="22484" lane="-969#1_1" startPos="13.360799738544573" endPos="18.360799738544575" roadsideCapacity="1416" friendlyPos="true"/>
    <parkingArea id="22485" lane="-846_1" startPos="50.52234819137633" endPos="55.522348191376324" roadsideCapacity="2032" friendlyPos="true"/>
    <parkingArea id="22486" lane="460_1" startPos="41.623767202225814" endPos="46.623767202225814" roadsideCapacity="1432" friendlyPos="true"/>
    <parkingArea id="22487" lane="-240#0_1" startPos="42.70711666646622" endPos="47.70711666646622" roadsideCapacity="1879" friendlyPos="true"/>
    <parkingArea id="22488" lane="788_1" startPos="5.0" endPos="10.0" roadsideCapacity="982" friendlyPos="true"/>
    <parkingArea id="22489" lane="456_1" startPos="214.57407889254637" endPos="219.57407889254637" roadsideCapacity="678" friendlyPos="true"/>
    <parkingArea id="22490" lane="292#2_1" startPos="83.67935905047085" endPos="88.67935905047085" roadsideCapacity="1514" friendlyPos="true"/>
    <parkingArea id="22491" lane="1379#7_1" startPos="392.57950167121385" endPos="397.5795016712138" roadsideCapacity="1189" friendlyPos="true"/>
    <parkingArea id="22492" lane="-1497_1" startPos="17.87" endPos="22.87" roadsideCapacity="1162" friendlyPos="true"/>
    <parkingArea id="22493" lane="-945_1" startPos="98.5149311494917" endPos="103.5149311494917" roadsideCapacity="1903" friendlyPos="true"/>
    <parkingArea id="22494" lane="1480#1_1" startPos="5.0" endPos="10.0" roadsideCapacity="1432" friendlyPos="true"/>
    <parkingArea id="22495" lane="279#0_1" startPos="81.54251730895768" endPos="86.54251730895768" roadsideCapacity="2075" friendlyPos="true"/>
    <parkingArea id="22496" lane="-650#0_1" startPos="17.44448765912584" endPos="22.44448765912584" roadsideCapacity="1334" friendlyPos="true"/>
    <parkingArea id="22497" lane="1407#0_1" startPos="88.54" endPos="93.54" roadsideCapacity="1481" friendlyPos="true"/>
    <parkingArea id="22498" lane="816#1_1" startPos="135.89109940443302" endPos="140.89109940443302" roadsideCapacity="1736" friendlyPos="true"/>
    <parkingArea id="22499" lane="856#2_1" startPos="98.80678582901254" endPos="103.80678582901254" roadsideCapacity="1295" friendlyPos="true"/>
    <parkingArea id="22500" lane="-522_1" startPos="9.50113327981957" endPos="14.50113327981957" roadsideCapacity="1723" friendlyPos="true"/>
    <parkingArea id="22501" lane="1419#0_1" startPos="78.8" endPos="83.8" roadsideCapacity="742" friendlyPos="true"/>
    <parkingArea id="22502" lane="538#0_1" startPos="5.0" endPos="10.0" roadsideCapacity="1473" friendlyPos="true"/>
    <parkingArea id="22503" lane="-294#3_1" startPos="5.0" endPos="10.0" roadsideCapacity="927" friendlyPos="true"/>
    <parkingArea id="22504" lane="468#6_1" startPos="5.0" endPos="10.0" roadsideCapacity="1002" friendlyPos="true"/>
    <parkingArea id="22505" lane="-1244#1_1" startPos="5.731318750194639" endPos="10.731318750194639" roadsideCapacity="310" friendlyPos="true"/>
    <parkingArea id="22506" lane="549_1" startPos="5.0" endPos="10.0" roadsideCapacity="291" friendlyPos="true"/>
    <parkingArea id="22507" lane="1570#1_0" startPos="381.0591867926865" endPos="386.0591867926865" roadsideCapacity="442" friendlyPos="true"/>
    <parkingArea id="25473" lane="563#3_1" startPos="20.086035508694405" endPos="25.086035508694405" roadsideCapacity="1462" friendlyPos="true"/>
    <rerouter id="22377" edges="-1347">
        <interval begin="0.0" end="36000">
            <parkingAreaReroute id="22420"/> <!-- in order of distance -->
            <parkingAreaReroute id="22492"/>
            <parkingAreaReroute id="22418"/>
        </interval>
    </rerouter>
    <rerouter id="22378" edges="1283#3">
        <interval begin="0.0" end="36000">
            <parkingAreaReroute id="22389"/> <!-- in order of distance -->
            <parkingAreaReroute id="22440"/>
            <parkingAreaReroute id="22483"/>
        </interval>
    </rerouter>
    <rerouter id="22379" edges="1355#0">
        <interval begin="0.0" end="36000">
            <parkingAreaReroute id="22386"/> <!-- in order of distance -->
            <parkingAreaReroute id="22383"/>
            <parkingAreaReroute id="22455"/>
        </interval>
    </rerouter>
    <rerouter id="22380" edges="-1355#5">
        <interval begin="0.0" end="36000">
            <parkingAreaReroute id="22387"/> <!-- in order of distance -->
            <parkingAreaReroute id="22423"/>
            <parkingAreaReroute id="22383"/>
        </interval>
    </rerouter>
    <rerouter id="22381" edges="23">
        <interval begin="0.0" end="36000">
            <parkingAreaReroute id="22458"/> <!-- in order of distance -->
            <parkingAreaReroute id="22417"/>
            <parkingAreaReroute id="22416"/>
        </interval>
    </rerouter>
    <rerouter id="22382" edges="-340">
        <interval begin="0.0" end="36000">
            <parkingAreaReroute id="22497"/> <!-- in order of distance -->
            <parkingAreaReroute id="22441"/>
            <parkingAreaReroute id="22388"/>
        </interval>
    </rerouter>
    <rerouter id="22383" edges="984#0">
        <interval begin="0.0" end="36000">
            <parkingAreaReroute id="22387"/> <!-- in order of distance -->
            <parkingAreaReroute id="22380"/>
            <parkingAreaReroute id="22423"/>
        </interval>
    </rerouter>
    <rerouter id="22384" edges="429#1">
        <interval begin="0.0" end="36000">
            <parkingAreaReroute id="22399"/> <!-- in order of distance -->
            <parkingAreaReroute id="22397"/>
            <parkingAreaReroute id="22501"/>
        </interval>
    </rerouter>
    <rerouter id="22385" edges="-1246#2">
        <interval begin="0.0" end="36000">
            <parkingAreaReroute id="22483"/> <!-- in order of distance -->
            <parkingAreaReroute id="22389"/>
            <parkingAreaReroute id="22378"/>
        </interval>
    </rerouter>
    <rerouter id="22386" edges="-994">
        <interval begin="0.0" end="36000">
            <parkingAreaReroute id="22379"/> <!-- in order of distance -->
            <parkingAreaReroute id="22383"/>
            <parkingAreaReroute id="22387"/>
        </interval>
    </rerouter>
    <rerouter id="22387" edges="-1355#5">
        <interval begin="0.0" end="36000">
            <parkingAreaReroute id="22380"/> <!-- in order of distance -->
            <parkingAreaReroute id="22423"/>
            <parkingAreaReroute id="22383"/>
        </interval>
    </rerouter>
    <rerouter id="22388" edges="-301">
        <interval begin="0.0" end="36000">
            <parkingAreaReroute id="22497"/> <!-- in order of distance -->
            <parkingAreaReroute id="22382"/>
            <parkingAreaReroute id="22441"/>
        </interval>
    </rerouter>
    <rerouter id="22389" edges="1283#4">
        <interval begin="0.0" end="36000">
            <parkingAreaReroute id="22378"/> <!-- in order of distance -->
            <parkingAreaReroute id="22440"/>
            <parkingAreaReroute id="22483"/>
        </interval>
    </rerouter>
    <rerouter id="22390" edges="1286#1">
        <interval begin="0.0" end="36000">
            <parkingAreaReroute id="22486"/> <!-- in order of distance -->
            <parkingAreaReroute id="22385"/>
            <parkingAreaReroute id="22504"/>
        </interval>
    </rerouter>
    <rerouter id="22391" edges="456">
        <interval begin="0.0" end="36000">
            <parkingAreaReroute id="22489"/> <!-- in order of distance -->
            <parkingAreaReroute id="22436"/>
            <parkingAreaReroute id="22410"/>
        </interval>
    </rerouter>
    <rerouter id="22392" edges="437">
        <interval begin="0.0" end="36000">
            <parkingAreaReroute id="22402"/> <!-- in order of distance -->
            <parkingAreaReroute id="22393"/>
            <parkingAreaReroute id="22398"/>
        </interval>
    </rerouter>
    <rerouter id="22393" edges="1570#1">
        <interval begin="0.0" end="36000">
            <parkingAreaReroute id="22398"/> <!-- in order of distance -->
            <parkingAreaReroute id="22507"/>
            <parkingAreaReroute id="22402"/>
        </interval>
    </rerouter>
    <rerouter id="22394" edges="650#1">
        <interval begin="0.0" end="36000">
            <parkingAreaReroute id="22442"/> <!-- in order of distance -->
            <parkingAreaReroute id="22404"/>
            <parkingAreaReroute id="22496"/>
        </interval>
    </rerouter>
    <rerouter id="22395" edges="846">
        <interval begin="0.0" end="36000">
            <parkingAreaReroute id="22485"/> <!-- in order of distance -->
            <parkingAreaReroute id="22491"/>
            <parkingAreaReroute id="22403"/>
        </interval>
    </rerouter>
    <rerouter id="22396" edges="-1388">
        <interval begin="0.0" end="36000">
            <parkingAreaReroute id="22414"/> <!-- in order of distance -->
            <parkingAreaReroute id="22400"/>
            <parkingAreaReroute id="22392"/>
        </interval>
    </rerouter>
    <rerouter id="22397" edges="429#1">
        <interval begin="0.0" end="36000">
            <parkingAreaReroute id="22384"/> <!-- in order of distance -->
            <parkingAreaReroute id="22399"/>
            <parkingAreaReroute id="22501"/>
        </interval>
    </rerouter>
    <rerouter id="22398" edges="922#3">
        <interval begin="0.0" end="36000">
            <parkingAreaReroute id="22393"/> <!-- in order of distance -->
            <parkingAreaReroute id="22507"/>
            <parkingAreaReroute id="22392"/>
        </interval>
    </rerouter>
    <rerouter id="22399" edges="-392#0">
        <interval begin="0.0" end="36000">
            <parkingAreaReroute id="22384"/> <!-- in order of distance -->
            <parkingAreaReroute id="22397"/>
            <parkingAreaReroute id="22501"/>
        </interval>
    </rerouter>
    <rerouter id="22400" edges="-844">
        <interval begin="0.0" end="36000">
            <parkingAreaReroute id="22441"/> <!-- in order of distance -->
            <parkingAreaReroute id="22497"/>
            <parkingAreaReroute id="22388"/>
        </interval>
    </rerouter>
    <rerouter id="22401" edges="930#0">
        <interval begin="0.0" end="36000">
            <parkingAreaReroute id="22447"/> <!-- in order of distance -->
            <parkingAreaReroute id="22462"/>
            <parkingAreaReroute id="22425"/>
        </interval>
    </rerouter>
    <rerouter id="22402" edges="222">
        <interval begin="0.0" end="36000">
            <parkingAreaReroute id="22392"/> <!-- in order of distance -->
            <parkingAreaReroute id="22393"/>
            <parkingAreaReroute id="22398"/>
        </interval>
    </rerouter>
    <rerouter id="22403" edges="1361#1">
        <interval begin="0.0" end="36000">
            <parkingAreaReroute id="22496"/> <!-- in order of distance -->
            <parkingAreaReroute id="22424"/>
            <parkingAreaReroute id="22491"/>
        </interval>
    </rerouter>
    <rerouter id="22404" edges="650#1">
        <interval begin="0.0" end="36000">
            <parkingAreaReroute id="22442"/> <!-- in order of distance -->
            <parkingAreaReroute id="22496"/>
            <parkingAreaReroute id="22502"/>
        </interval>
    </rerouter>
    <rerouter id="22405" edges="310#3">
        <interval begin="0.0" end="36000">
            <parkingAreaReroute id="22406"/> <!-- in order of distance -->
            <parkingAreaReroute id="22413"/>
            <parkingAreaReroute id="22507"/>
        </interval>
    </rerouter>
    <rerouter id="22406" edges="310#3">
        <interval begin="0.0" end="36000">
            <parkingAreaReroute id="22413"/> <!-- in order of distance -->
            <parkingAreaReroute id="22405"/>
            <parkingAreaReroute id="22507"/>
        </interval>
    </rerouter>
    <rerouter id="22407" edges="-532#0">
        <interval begin="0.0" end="36000">
            <parkingAreaReroute id="22506"/> <!-- in order of distance -->
            <parkingAreaReroute id="22493"/>
            <parkingAreaReroute id="22500"/>
        </interval>
    </rerouter>
    <rerouter id="22408" edges="-913">
        <interval begin="0.0" end="36000">
            <parkingAreaReroute id="22410"/> <!-- in order of distance -->
            <parkingAreaReroute id="22391"/>
            <parkingAreaReroute id="22489"/>
        </interval>
    </rerouter>
    <rerouter id="22409" edges="1593">
        <interval begin="0.0" end="36000">
            <parkingAreaReroute id="22437"/> <!-- in order of distance -->
            <parkingAreaReroute id="22436"/>
            <parkingAreaReroute id="22408"/>
        </interval>
    </rerouter>
    <rerouter id="22410" edges="-913">
        <interval begin="0.0" end="36000">
            <parkingAreaReroute id="22408"/> <!-- in order of distance -->
            <parkingAreaReroute id="22391"/>
            <parkingAreaReroute id="22489"/>
        </interval>
    </rerouter>
    <rerouter id="22411" edges="1404#3">
        <interval begin="0.0" end="36000">
            <parkingAreaReroute id="22426"/> <!-- in order of distance -->
            <parkingAreaReroute id="22448"/>
            <parkingAreaReroute id="22455"/>
        </interval>
    </rerouter>
    <rerouter id="22412" edges="563#1">
        <interval begin="0.0" end="36000">
            <parkingAreaReroute id="25473"/> <!-- in order of distance -->
            <parkingAreaReroute id="22434"/>
            <parkingAreaReroute id="22427"/>
        </interval>
    </rerouter>
    <rerouter id="22413" edges="1323">
        <interval begin="0.0" end="36000">
            <parkingAreaReroute id="22406"/> <!-- in order of distance -->
            <parkingAreaReroute id="22405"/>
            <parkingAreaReroute id="22507"/>
        </interval>
    </rerouter>
    <rerouter id="22414" edges="-1380#0">
        <interval begin="0.0" end="36000">
            <parkingAreaReroute id="22392"/> <!-- in order of distance -->
            <parkingAreaReroute id="22402"/>
            <parkingAreaReroute id="22396"/>
        </interval>
    </rerouter>
    <rerouter id="22415" edges="969#1">
        <interval begin="0.0" end="36000">
            <parkingAreaReroute id="22484"/> <!-- in order of distance -->
            <parkingAreaReroute id="22491"/>
            <parkingAreaReroute id="22395"/>
        </interval>