<?xml version="1.0" encoding="UTF-8"?>

<!--
    Monaco SUMO Traffic (MoST) Scenario
    Copyright (C) 2019
    Lara CODECA

    This program is free software: you can redistribute it and/or modify
    it under the terms of the GNU General Public License as published by
    the Free Software Foundation, either version 3 of the License, or
    (at your option) any later version.

    This program is distributed in the hope that it will be useful,
    but WITHOUT ANY WARRANTY; without even the implied warranty of
    MERCHANTABILITY or FITNESS FOR A PARTICULAR PURPOSE.  See the
    GNU General Public License for more details.

    You should have received a copy of the GNU General Public License
    along with this program.  If not, see <http://www.gnu.org/licenses/>.
-->

<additional xmlns:xsi="http://www.w3.org/2001/XMLSchema-instance" xsi:noNamespaceSchemaLocation="http://sumo.dlr.de/xsd/additional_file.xsd"> 
    <busStop id="131018" name="Carnoles" lane="-152191_0" startPos="425.65200771113706" endPos="575.652007711137" lines="M0:Italy M0:France" friendlyPos="true"> <!-- 131018 131067 -->
        <access lane="153656_1" pos="334.2025989134852"/>
    </busStop>
    <busStop id="131023" name="Eze" lane="-152191_0" startPos="13083.36" endPos="13233.36" lines="M0:Italy M0:France" friendlyPos="true"> <!-- 131023 131054 -->
        <access lane="153478_1" pos="80.0"/>
    </busStop>
    <busStop id="131025" name="Roquebrune-Cap-Martin" lane="-152191_0" startPos="2820.390688733474" endPos="2970.3906887334733" lines="M0:Italy M0:France" friendlyPos="true"> <!-- 131025 131066 -->
        <access lane="152551_1" pos="40.075"/>
    </busStop>
    <busStop id="131028" name="Monaco - Monte Carlo" lane="-152191_0" startPos="7005.689629694614" endPos="7155.689629694613" lines="M0:Italy M0:France" friendlyPos="true"> <!-- 131028 131065 -->
        <access lane="152230_1" pos="15.14"/>
    </busStop>
    <busStop id="131032" name="Cap d'Ail" lane="-152191_0" startPos="10325.763642584521" endPos="10475.76364258452" lines="M0:Italy M0:France" friendlyPos="true"> <!-- 131032 131053 -->
        <access lane="153473#2_1" pos="50.47"/>
    </busStop>
    <busStop id="131034" name="Monte-Carlo Country Club" lane="-152191_0" startPos="3868.748642245454" endPos="4018.748642245453" lines="M0:Italy M0:France" friendlyPos="true"> <!-- 131034 131114 -->
        <access lane="-152560_1" pos="213.2160605204743"/>
    </busStop>
</additional>
