<?xml version="1.0" encoding="UTF-8"?>

<!--
    Monaco SUMO Traffic (MoST) Scenario
    Copyright (C) 2018
    Lara CODECA

    This program is free software: you can redistribute it and/or modify
    it under the terms of the GNU General Public License as published by
    the Free Software Foundation, either version 3 of the License, or
    (at your option) any later version.

    This program is distributed in the hope that it will be useful,
    but WITHOUT ANY WARRANTY; without even the implied warranty of
    MERCHANTABILITY or FITNESS FOR A PARTICULAR PURPOSE.  See the
    GNU General Public License for more details.

    You should have received a copy of the GNU General Public License
    along with this program.  If not, see <http://www.gnu.org/licenses/>.
-->

<additional xmlns:xsi="http://www.w3.org/2001/XMLSchema-instance" xsi:noNamespaceSchemaLocation="http://sumo.dlr.de/xsd/additional_file.xsd"> 
    <busStop id="117804" name="Carnoles" lane="13233#1_0" startPos="6424.128838910667" endPos="6574.128838910667" lines="M0:France" friendlyPos="true"> <!-- 117804 -->
        <access lane="14732_1" pos="334.11370664462817"/>
    </busStop>
    <busStop id="117809" name="Eze" lane="13250#1_0" startPos="5929.13" endPos="6079.13" lines="M0:Italy" friendlyPos="true"> <!-- 117809 -->
        <access lane="14552_1" pos="80.0"/>
    </busStop>
    <busStop id="117811" name="Roquebrune-Cap-Martin" lane="13233#1_0" startPos="4029.3884266765144" endPos="4179.388426676514" lines="M0:France" friendlyPos="true"> <!-- 117811 -->
        <access lane="13623_1" pos="41.935"/>
    </busStop>
    <busStop id="117814" name="Monaco - Monte Carlo" lane="13251_0" startPos="6040.284657933726" endPos="6190.284657933726" lines="M0:France" friendlyPos="true"> <!-- 117814 -->
        <access lane="13300_1" pos="9.405"/>
    </busStop>
    <busStop id="117818" name="Cap d'Ail" lane="13251_0" startPos="2762.5926798918345" endPos="2912.5926798918345" lines="M0:France" friendlyPos="true"> <!-- 117818 -->
        <access lane="14547#2_1" pos="50.86"/>
    </busStop>
    <busStop id="117820" name="Monte-Carlo Country Club" lane="13242_0" startPos="3862.819239982835" endPos="4012.819239982834" lines="M0:Italy" friendlyPos="true"> <!-- 117820 -->
        <access lane="-13632_1" pos="214.32579300502164"/>
    </busStop>
    <busStop id="117838" name="Cap d'Ail" lane="13250#1_0" startPos="3169.743272824819" endPos="3319.743272824819" lines="M0:Italy" friendlyPos="true"> <!-- 117838 -->
        <access lane="13188_0" pos="22.81"/>
    </busStop>
    <busStop id="117839" name="Eze" lane="13251_0" startPos="5.0" endPos="155.0" lines="M0:France" friendlyPos="true"> <!-- 117839 -->
        <access lane="14552_1" pos="80.0"/>
    </busStop>
    <busStop id="117850" name="Monaco - Monte Carlo" lane="13242_0" startPos="6977.65" endPos="7127.65" lines="M0:Italy" friendlyPos="true"> <!-- 117850 -->
        <access lane="14017#0_1" pos="13.645"/>
    </busStop>
    <busStop id="117851" name="Roquebrune-Cap-Martin" lane="13242_0" startPos="2803.0737420974833" endPos="2953.0737420974824" lines="M0:Italy" friendlyPos="true"> <!-- 117851 -->
        <access lane="-14432#1_1" pos="66.46"/>
    </busStop>
    <busStop id="117852" name="Carnoles" lane="13242_0" startPos="419.9651835428389" endPos="569.9651835428389" lines="M0:Italy" friendlyPos="true"> <!-- 117852 -->
        <access lane="-14086#0_1" pos="1580.0150853852765"/>
    </busStop>
    <busStop id="117899" name="Monte-Carlo Country Club" lane="13233#1_0" startPos="2981.0791005278415" endPos="3131.079100527841" lines="M0:France" friendlyPos="true"> <!-- 117899 -->
        <access lane="14310#0_0" pos="203.48554933931823"/>
    </busStop>
</additional>
