<?xml version="1.0" encoding="UTF-8"?>
<!-- 
    Monaco SUMO Traffic (MoST) Scenario
    Copyright (C) 2018 
    Lara CODECA

    This program is free software: you can redistribute it and/or modify
    it under the terms of the GNU General Public License as published by
    the Free Software Foundation, either version 3 of the License, or
    (at your option) any later version.

    This program is distributed in the hope that it will be useful,
    but WITHOUT ANY WARRANTY; without even the implied warranty of
    MERCHANTABILITY or FITNESS FOR A PARTICULAR PURPOSE.  See the
    GNU General Public License for more details.

    You should have received a copy of the GNU General Public License
    along with this program.  If not, see <http://www.gnu.org/licenses/>.
-->
<additional xmlns:xsi="http://www.w3.org/2001/XMLSchema-instance" xsi:noNamespaceSchemaLocation="http://sumo.dlr.de/xsd/additional_file.xsd"> 
    <busStop id="155310" name="Carnoles" lane="38#1_0" startPos="6423.226126936799" endPos="6573.226126936799" lines="M0:France" friendlyPos="true"> <!-- 155310 -->
        <access lane="1593_0" pos="334.58452018009064"/>
    </busStop>
    <busStop id="155315" name="Eze" lane="55#1_0" startPos="5928.33" endPos="6078.33" lines="M0:Italy" friendlyPos="true"> <!-- 155315 -->
        <access lane="1406_0" pos="80.0"/>
    </busStop>
    <busStop id="155317" name="Roquebrune-Cap-Martin" lane="38#1_0" startPos="4028.4857147026473" endPos="4178.485714702648" lines="M0:France" friendlyPos="true"> <!-- 155317 -->
        <access lane="460_0" pos="35.51"/>
    </busStop>
    <busStop id="155320" name="Monaco - Monte Carlo" lane="56_0" startPos="6040.265692378214" endPos="6190.265692378212" lines="M0:France" friendlyPos="true"> <!-- 155320 -->
        <access lane="675_0" pos="31.44"/>
    </busStop>
    <busStop id="155324" name="Cap d'Ail" lane="56_0" startPos="2762.573714336322" endPos="2912.5737143363212" lines="M0:France" friendlyPos="true"> <!-- 155324 -->
        <access lane="1401#2_0" pos="50.35"/>
    </busStop>
    <busStop id="155326" name="Monte-Carlo Country Club" lane="47_0" startPos="3862.8192399828345" endPos="4012.8192399828336" lines="M0:Italy" friendlyPos="true"> <!-- 155326 -->
        <access lane="-470_0" pos="212.27160236942768"/>
    </busStop>
    <busStop id="155344" name="Cap d'Ail" lane="55#1_0" startPos="3168.9732087984753" endPos="3318.9732087984753" lines="M0:Italy" friendlyPos="true"> <!-- 155344 -->
        <access lane="14_0" pos="22.195"/>
    </busStop>
    <busStop id="155345" name="Eze" lane="56_0" startPos="5.0" endPos="155.0" lines="M0:France" friendlyPos="true"> <!-- 155345 -->
        <access lane="1406_0" pos="80.0"/>
    </busStop>
    <busStop id="155356" name="Monaco - Monte Carlo" lane="47_0" startPos="6975.49" endPos="7125.49" lines="M0:Italy" friendlyPos="true"> <!-- 155356 -->
        <access lane="701#1_0" pos="6.975"/>
    </busStop>
    <busStop id="155357" name="Roquebrune-Cap-Martin" lane="47_0" startPos="2803.0737420974833" endPos="2953.0737420974824" lines="M0:Italy" friendlyPos="true"> <!-- 155357 -->
        <access lane="-1286#1_0" pos="66.435"/>
    </busStop>
    <busStop id="155358" name="Carnoles" lane="47_0" startPos="419.9651835428389" endPos="569.9651835428389" lines="M0:Italy" friendlyPos="true"> <!-- 155358 -->
        <access lane="-933#0_0" pos="1580.9537718635652"/>
    </busStop>
    <busStop id="155405" name="Monte-Carlo Country Club" lane="38#1_0" startPos="2980.1763885539744" endPos="3130.1763885539744" lines="M0:France" friendlyPos="true"> <!-- 155405 -->
        <access lane="1157#0_0" pos="203.0811020783986"/>
    </busStop>
</additional>
