<?xml version="1.0" encoding="UTF-8"?>

<!-- Generated with Monaco SUMO Traffic (MoST) Scenario [https://github.com/lcodeca/MoSTScenario] -->

<additional xmlns:xsi="http://www.w3.org/2001/XMLSchema-instance" xsi:noNamespaceSchemaLocation="http://sumo.dlr.de/xsd/additional_file.xsd"> 
    <parkingArea id="1059" lane="-153419_1" startPos="10.0" endPos="20.0" roadsideCapacity="225" friendlyPos="true"/>
    <parkingArea id="1060" lane="-152335_1" startPos="18.191498545200943" endPos="28.191498545200943" roadsideCapacity="75" friendlyPos="true"/>
    <parkingArea id="1061" lane="153427#0_1" startPos="10.0" endPos="20.0" roadsideCapacity="350" friendlyPos="true"/>
    <parkingArea id="1062" lane="-153427#5_1" startPos="10.583917992597222" endPos="20.58391799259722" roadsideCapacity="350" friendlyPos="true"/>
    <parkingArea id="1063" lane="153547_1" startPos="37.87987408341405" endPos="47.87987408341405" roadsideCapacity="50" friendlyPos="true"/>
    <parkingArea id="1064" lane="-152443_1" startPos="46.23766028764538" endPos="56.23766028764538" roadsideCapacity="250" friendlyPos="true"/>
    <parkingArea id="1065" lane="152843#2_1" startPos="10.0" endPos="20.0" roadsideCapacity="50" friendlyPos="true"/>
    <parkingArea id="1066" lane="-153325#2_1" startPos="151.1470514102324" endPos="161.1470514102324" roadsideCapacity="75" friendlyPos="true"/>
    <parkingArea id="1067" lane="-153073_1" startPos="10.0" endPos="20.0" roadsideCapacity="350" friendlyPos="true"/>
    <parkingArea id="1068" lane="-153427#5_1" startPos="47.15180321340752" endPos="57.15180321340752" roadsideCapacity="500" friendlyPos="true"/>
    <parkingArea id="1069" lane="152952#0_0" startPos="105.83394299235374" endPos="115.83394299235371" roadsideCapacity="30" friendlyPos="true"/>
    <parkingArea id="1070" lane="152955_0" startPos="20.368612293044286" endPos="30.368612293044283" roadsideCapacity="10" friendlyPos="true"/>
    <parkingArea id="1071" lane="152435_0" startPos="31.41169525999397" endPos="41.41169525999397" roadsideCapacity="10" friendlyPos="true"/>
    <parkingArea id="1072" lane="152430#1_0" startPos="10.0" endPos="20.0" roadsideCapacity="10" friendlyPos="true"/>
    <parkingArea id="1073" lane="152954#1_0" startPos="12.59527880416191" endPos="22.59527880416191" roadsideCapacity="10" friendlyPos="true"/>
    <parkingArea id="1074" lane="152430#1_0" startPos="21.254673498468975" endPos="31.25467349846898" roadsideCapacity="10" friendlyPos="true"/>
    <parkingArea id="1075" lane="152430#1_0" startPos="46.14" endPos="56.14" roadsideCapacity="10" friendlyPos="true"/>
    <parkingArea id="1076" lane="152434_0" startPos="10.0" endPos="20.0" roadsideCapacity="10" friendlyPos="true"/>
    <parkingArea id="1077" lane="152434_0" startPos="35.99" endPos="45.99" roadsideCapacity="10" friendlyPos="true"/>
    <parkingArea id="1078" lane="152951_0" startPos="38.11359176019805" endPos="48.11359176019805" roadsideCapacity="10" friendlyPos="true"/>
    <parkingArea id="1079" lane="152951_0" startPos="10.0" endPos="20.0" roadsideCapacity="10" friendlyPos="true"/>
    <parkingArea id="1080" lane="152954#4_0" startPos="10.424359338905218" endPos="20.42435933890522" roadsideCapacity="10" friendlyPos="true"/>
    <parkingArea id="1081" lane="152954#4_0" startPos="36.39976501427444" endPos="46.39976501427445" roadsideCapacity="10" friendlyPos="true"/>
    <parkingArea id="1082" lane="152435_0" startPos="10.0" endPos="20.0" roadsideCapacity="10" friendlyPos="true"/>
    <parkingArea id="1083" lane="152986#0_0" startPos="28.709240862090738" endPos="38.70924086209074" roadsideCapacity="50" friendlyPos="true"/>
    <parkingArea id="1084" lane="152978_0" startPos="65.15270464275225" endPos="75.15270464275227" roadsideCapacity="50" friendlyPos="true"/>
    <parkingArea id="1085" lane="152528#1_0" startPos="71.538132078211" endPos="81.538132078211" roadsideCapacity="50" friendlyPos="true"/>
    <parkingArea id="1086" lane="152151_0" startPos="37.51369263546633" endPos="47.51369263546633" roadsideCapacity="30" friendlyPos="true"/>
    <parkingArea id="1087" lane="-152330#0_1" startPos="376.2003031773777" endPos="386.2003031773777" roadsideCapacity="150" friendlyPos="true"/>
    <parkingArea id="1088" lane="152551_1" startPos="47.03561392098869" endPos="57.03561392098869" roadsideCapacity="550" friendlyPos="true"/>
    <parkingArea id="1089" lane="152532_1" startPos="273.81349224230314" endPos="283.81349224230314" roadsideCapacity="250" friendlyPos="true"/>
    <parkingArea id="1090" lane="152734#1_1" startPos="141.34062523616294" endPos="151.34062523616294" roadsideCapacity="250" friendlyPos="true"/>
    <parkingArea id="1091" lane="-153460_1" startPos="23.834127294388516" endPos="33.834127294388516" roadsideCapacity="3500" friendlyPos="true"/>
    <parkingArea id="1092" lane="152952#1_0" startPos="14.519458608208833" endPos="24.51945860820883" roadsideCapacity="30" friendlyPos="true"/>
    <parkingArea id="1093" lane="-152927_1" startPos="124.96073652542965" endPos="134.96073652542967" roadsideCapacity="75" friendlyPos="true"/>
    <parkingArea id="1094" lane="152329_1" startPos="105.12628506230271" endPos="115.12628506230271" roadsideCapacity="250" friendlyPos="true"/>
    <parkingArea id="1095" lane="153433#1_1" startPos="82.51" endPos="92.51" roadsideCapacity="1500" friendlyPos="true"/>
    <parkingArea id="1096" lane="152734#1_1" startPos="257.62" endPos="267.62" roadsideCapacity="250" friendlyPos="true"/>
    <parkingArea id="1097" lane="152413#3_1" startPos="395.5531002049379" endPos="405.5531002049379" roadsideCapacity="100" friendlyPos="true"/>
    <parkingArea id="1098" lane="152413#3_1" startPos="1230.91" endPos="1240.91" roadsideCapacity="100" friendlyPos="true"/>
    <parkingArea id="1099" lane="152356_0" startPos="14.456111907943685" endPos="24.456111907943686" roadsideCapacity="50" friendlyPos="true"/>
    <parkingArea id="1100" lane="-152992_1" startPos="145.63085012287993" endPos="155.6308501228799" roadsideCapacity="75" friendlyPos="true"/>
    <parkingArea id="1101" lane="153656_1" startPos="215.5353234652641" endPos="225.53532346526413" roadsideCapacity="250" friendlyPos="true"/>
    <parkingArea id="1102" lane="-153012#0_1" startPos="473.628987137712" endPos="483.628987137712" roadsideCapacity="50" friendlyPos="true"/>
    <parkingArea id="1103" lane="-153643_1" startPos="10.0" endPos="20.0" roadsideCapacity="75" friendlyPos="true"/>
    <parkingArea id="1104" lane="152649#1_1" startPos="86.22406506320391" endPos="96.22406506320391" roadsideCapacity="250" friendlyPos="true"/>
    <parkingArea id="1105" lane="153395_1" startPos="150.7539571943521" endPos="160.7539571943521" roadsideCapacity="100" friendlyPos="true"/>
    <parkingArea id="1106" lane="152329_1" startPos="572.08" endPos="582.08" roadsideCapacity="2500" friendlyPos="true"/>
    <parkingArea id="1107" lane="-153491#0_1" startPos="92.73943398744188" endPos="102.73943398744188" roadsideCapacity="250" friendlyPos="true"/>
    <parkingArea id="1108" lane="-153480#7_1" startPos="14.086941257149164" endPos="24.086941257149164" roadsideCapacity="550" friendlyPos="true"/>
    <parkingArea id="1109" lane="152466#0_1" startPos="15.247394894158564" endPos="25.247394894158564" roadsideCapacity="750" friendlyPos="true"/>
    <parkingArea id="1110" lane="153484#1_1" startPos="14.644444152311884" endPos="24.644444152311884" roadsideCapacity="75" friendlyPos="true"/>
    <parkingArea id="1111" lane="152824#1_1" startPos="42.27" endPos="52.27" roadsideCapacity="75" friendlyPos="true"/>
    <parkingArea id="1112" lane="152912#2_1" startPos="51.40308031008634" endPos="61.40308031008634" roadsideCapacity="250" friendlyPos="true"/>
    <parkingArea id="1113" lane="152973_1" startPos="105.45503132773575" endPos="115.45503132773575" roadsideCapacity="2500" friendlyPos="true"/>
    <parkingArea id="1114" lane="-152653_1" startPos="47.77855212969695" endPos="57.77855212969695" roadsideCapacity="75" friendlyPos="true"/>
    <parkingArea id="1115" lane="-152651_1" startPos="20.36" endPos="30.36" roadsideCapacity="35" friendlyPos="true"/>
    <parkingArea id="1116" lane="152771_1" startPos="140.04" endPos="150.04" roadsideCapacity="1500" friendlyPos="true"/>
    <parkingArea id="1117" lane="152652#1_1" startPos="20.54894322667777" endPos="30.54894322667777" roadsideCapacity="75" friendlyPos="true"/>
    <parkingArea id="1118" lane="153639_1" startPos="11.067015902151208" endPos="21.06701590215121" roadsideCapacity="1500" friendlyPos="true"/>
    <parkingArea id="1119" lane="-152660#0_1" startPos="85.5435846694303" endPos="95.5435846694303" roadsideCapacity="35" friendlyPos="true"/>
    <parkingArea id="1120" lane="-153401_1" startPos="62.81" endPos="72.81" roadsideCapacity="75" friendlyPos="true"/>
    <parkingArea id="1121" lane="-152674#1_1" startPos="10.0" endPos="20.0" roadsideCapacity="75" friendlyPos="true"/>
    <parkingArea id="1122" lane="-152992_1" startPos="860.3489881707926" endPos="870.3489881707926" roadsideCapacity="250" friendlyPos="true"/>
    <parkingArea id="1123" lane="152824#1_1" startPos="24.833781188444974" endPos="34.83378118844497" roadsideCapacity="1500" friendlyPos="true"/>
    <parkingArea id="1124" lane="152534#6_1" startPos="28.994704020024265" endPos="38.994704020024265" roadsideCapacity="1250" friendlyPos="true"/>
    <parkingArea id="1125" lane="153355#1_1" startPos="19.409999999999997" endPos="29.409999999999997" roadsideCapacity="250" friendlyPos="true"/>
    <parkingArea id="1126" lane="153476#24_1" startPos="18.61" endPos="28.61" roadsideCapacity="1500" friendlyPos="true"/>
    <parkingArea id="1127" lane="-152739_1" startPos="38.99028532596053" endPos="48.99028532596053" roadsideCapacity="75" friendlyPos="true"/>
    <parkingArea id="1128" lane="-152480_1" startPos="456.93" endPos="466.93" roadsideCapacity="1250" friendlyPos="true"/>
    <parkingArea id="1129" lane="152820_1" startPos="18.89107784894933" endPos="28.89107784894933" roadsideCapacity="225" friendlyPos="true"/>
    <parkingArea id="1130" lane="152896_1" startPos="10.0" endPos="20.0" roadsideCapacity="250" friendlyPos="true"/>
    <parkingArea id="1131" lane="152775#4_1" startPos="10.0" endPos="20.0" roadsideCapacity="35" friendlyPos="true"/>
    <parkingArea id="1132" lane="153009#1_1" startPos="17.950000000000003" endPos="27.950000000000003" roadsideCapacity="1000" friendlyPos="true"/>
    <parkingArea id="1133" lane="-152900#1_1" startPos="37.26" endPos="47.26" roadsideCapacity="6500" friendlyPos="true"/>
    <parkingArea id="1134" lane="152395_1" startPos="49.93175215381767" endPos="59.93175215381767" roadsideCapacity="50" friendlyPos="true"/>
    <parkingArea id="1135" lane="-152398#2_1" startPos="24.50484705942423" endPos="34.50484705942423" roadsideCapacity="1500" friendlyPos="true"/>
    <parkingArea id="1136" lane="-152831#0_1" startPos="10.0" endPos="20.0" roadsideCapacity="750" friendlyPos="true"/>
    <parkingArea id="1137" lane="-152134_1" startPos="17.812106434961176" endPos="27.812106434961176" roadsideCapacity="750" friendlyPos="true"/>
    <parkingArea id="1138" lane="152818#3_1" startPos="34.356580305289455" endPos="44.356580305289455" roadsideCapacity="750" friendlyPos="true"/>
    <parkingArea id="1139" lane="-152899#0_1" startPos="31.06016137938613" endPos="41.06016137938613" roadsideCapacity="75" friendlyPos="true"/>
    <parkingArea id="1140" lane="-152899#1_1" startPos="107.84811349910291" endPos="117.84811349910291" roadsideCapacity="75" friendlyPos="true"/>
    <parkingArea id="1141" lane="152802_1" startPos="13.740000000000002" endPos="23.740000000000002" roadsideCapacity="75" friendlyPos="true"/>
    <parkingArea id="1142" lane="-152581#0_1" startPos="49.75395728361974" endPos="59.75395728361974" roadsideCapacity="250" friendlyPos="true"/>
    <parkingArea id="1143" lane="152780_1" startPos="30.20240131102198" endPos="40.20240131102198" roadsideCapacity="750" friendlyPos="true"/>
    <parkingArea id="1144" lane="-153559#2_1" startPos="10.0" endPos="20.0" roadsideCapacity="750" friendlyPos="true"/>
    <parkingArea id="1145" lane="152796#0_1" startPos="10.0" endPos="20.0" roadsideCapacity="1000" friendlyPos="true"/>
    <parkingArea id="1146" lane="152967_1" startPos="40.7845496767217" endPos="50.7845496767217" roadsideCapacity="750" friendlyPos="true"/>
    <parkingArea id="1147" lane="-152804_1" startPos="77.35744050395286" endPos="87.35744050395286" roadsideCapacity="750" friendlyPos="true"/>
    <parkingArea id="1149" lane="152396#1_1" startPos="13.691070060325536" endPos="23.691070060325536" roadsideCapacity="75" friendlyPos="true"/>
    <parkingArea id="1150" lane="152396#2_1" startPos="10.0" endPos="20.0" roadsideCapacity="50" friendlyPos="true"/>
    <parkingArea id="1151" lane="152451_1" startPos="37.66923210112182" endPos="47.66923210112182" roadsideCapacity="750" friendlyPos="true"/>
    <parkingArea id="1152" lane="152677#5_1" startPos="24.549999999999997" endPos="34.55" roadsideCapacity="250" friendlyPos="true"/>
    <parkingArea id="1153" lane="152832#1_1" startPos="10.0" endPos="20.0" roadsideCapacity="1000" friendlyPos="true"/>
    <parkingArea id="1154" lane="-152814#4_1" startPos="143.38" endPos="153.38" roadsideCapacity="75" friendlyPos="true"/>
    <parkingArea id="1155" lane="-152814#4_1" startPos="58.48972265307343" endPos="68.48972265307343" roadsideCapacity="50" friendlyPos="true"/>
    <parkingArea id="1156" lane="-152688#1_1" startPos="25.57110683074404" endPos="35.571106830744036" roadsideCapacity="750" friendlyPos="true"/>
    <parkingArea id="1157" lane="152422#0_1" startPos="19.127040846320085" endPos="29.127040846320085" roadsideCapacity="100" friendlyPos="true"/>
    <parkingArea id="1158" lane="152380_1" startPos="292.5" endPos="302.5" roadsideCapacity="1500" friendlyPos="true"/>
    <parkingArea id="1159" lane="152534#4_1" startPos="228.20533497607153" endPos="238.20533497607153" roadsideCapacity="550" friendlyPos="true"/>
    <parkingArea id="1160" lane="-152605#0_1" startPos="90.87523535996247" endPos="100.87523535996247" roadsideCapacity="1250" friendlyPos="true"/>
    <parkingArea id="1161" lane="-152651_1" startPos="20.36" endPos="30.36" roadsideCapacity="750" friendlyPos="true"/>
    <parkingArea id="1162" lane="-152673_1" startPos="18.828831276418114" endPos="28.828831276418114" roadsideCapacity="1250" friendlyPos="true"/>
    <parkingArea id="1163" lane="-152587#1_1" startPos="26.29037711501739" endPos="36.29037711501739" roadsideCapacity="550" friendlyPos="true"/>
    <parkingArea id="1164" lane="-153461#1_1" startPos="37.4" endPos="47.4" roadsideCapacity="1500" friendlyPos="true"/>
    <parkingArea id="1165" lane="-153325#1_1" startPos="31.638893823745292" endPos="41.638893823745285" roadsideCapacity="250" friendlyPos="true"/>
    <parkingArea id="1166" lane="153048#1_1" startPos="49.95" endPos="59.95" roadsideCapacity="250" friendlyPos="true"/>
    <parkingArea id="1167" lane="-152929_1" startPos="47.04611912077444" endPos="57.04611912077444" roadsideCapacity="1500" friendlyPos="true"/>
    <parkingArea id="1168" lane="-152460_1" startPos="100.21" endPos="110.21" roadsideCapacity="1250" friendlyPos="true"/>
    <parkingArea id="1169" lane="-152936_1" startPos="10.0" endPos="20.0" roadsideCapacity="75" friendlyPos="true"/>
    <parkingArea id="1170" lane="-153012#0_1" startPos="1474.3210728763772" endPos="1484.3210728763772" roadsideCapacity="75" friendlyPos="true"/>
    <parkingArea id="1171" lane="152396#2_1" startPos="86.18595081883184" endPos="96.18595081883183" roadsideCapacity="75" friendlyPos="true"/>
    <parkingArea id="1172" lane="153451#7_1" startPos="401.78" endPos="411.78" roadsideCapacity="25" friendlyPos="true"/>
    <parkingArea id="1173" lane="153449#8_1" startPos="10.0" endPos="20.0" roadsideCapacity="75" friendlyPos="true"/>
    <parkingArea id="1174" lane="-153024_1" startPos="96.01485565702913" endPos="106.01485565702913" roadsideCapacity="750" friendlyPos="true"/>
    <parkingArea id="1175" lane="153549#0_1" startPos="10.0" endPos="20.0" roadsideCapacity="1000" friendlyPos="true"/>
    <parkingArea id="1176" lane="152380_1" startPos="10.0" endPos="20.0" roadsideCapacity="225" friendlyPos="true"/>
    <parkingArea id="1177" lane="153479#0_1" startPos="77.51" endPos="87.51" roadsideCapacity="150" friendlyPos="true"/>
    <parkingArea id="1178" lane="-152938#1_1" startPos="59.0079760654871" endPos="69.0079760654871" roadsideCapacity="1000" friendlyPos="true"/>
    <parkingArea id="1179" lane="-152608_1" startPos="14.769064154979382" endPos="24.769064154979382" roadsideCapacity="1250" friendlyPos="true"/>
    <parkingArea id="1180" lane="153490#0_1" startPos="62.03" endPos="72.03" roadsideCapacity="500" friendlyPos="true"/>
    <parkingArea id="1181" lane="-152624#0_1" startPos="150.27" endPos="160.27" roadsideCapacity="3500" friendlyPos="true"/>
    <parkingArea id="1182" lane="152858_1" startPos="10.0" endPos="20.0" roadsideCapacity="75" friendlyPos="true"/>
    <parkingArea id="1183" lane="153323#4_1" startPos="197.2618085767816" endPos="207.2618085767816" roadsideCapacity="250" friendlyPos="true"/>
    <parkingArea id="1184" lane="-153323#1_1" startPos="31.06587230698064" endPos="41.06587230698064" roadsideCapacity="75" friendlyPos="true"/>
    <parkingArea id="1185" lane="152152_0" startPos="61.70736997596153" endPos="71.70736997596153" roadsideCapacity="50" friendlyPos="true"/>
    <parkingArea id="1186" lane="152324_1" startPos="425.9836107760887" endPos="435.9836107760888" roadsideCapacity="350" friendlyPos="true"/>
    <rerouter id="1059" edges="-153419">
        <interval begin="0.0" end="86400">
            <!-- in order of distance --> 
            <parkingAreaReroute id="1059" visible="true"/>
            <parkingAreaReroute id="1110" visible="true"/>
            <parkingAreaReroute id="1154" visible="true"/>
            <parkingAreaReroute id="1155" visible="true"/>
            <parkingAreaReroute id="1130" visible="true"/>
            <parkingAreaReroute id="1173" visible="true"/>
            <parkingAreaReroute id="1143" visible="true"/>
            <parkingAreaReroute id="1109" visible="true"/>
            <parkingAreaReroute id="1156" visible="true"/>
            <parkingAreaReroute id="1131" visible="true"/>
            <parkingAreaReroute id="1140" visible="true"/>
            <parkingAreaReroute id="1139" visible="true"/>
            <parkingAreaReroute id="1120" visible="true"/>
            <parkingAreaReroute id="1153" visible="true"/>
            <parkingAreaReroute id="1111" visible="true"/>
        </interval>
    </rerouter>
    <rerouter id="1060" edges="-152335">
        <interval begin="0.0" end="86400">
            <!-- in order of distance --> 
            <parkingAreaReroute id="1060" visible="true"/>
            <parkingAreaReroute id="1125" visible="true"/>
            <parkingAreaReroute id="1165" visible="true"/>
            <parkingAreaReroute id="1066" visible="true"/>
            <parkingAreaReroute id="1102" visible="true"/>
            <parkingAreaReroute id="1170" visible="true"/>
            <parkingAreaReroute id="1088" visible="true"/>
            <parkingAreaReroute id="1108" visible="true"/>
            <parkingAreaReroute id="1184" visible="true"/>
            <parkingAreaReroute id="1063" visible="true"/>
            <parkingAreaReroute id="1163" visible="true"/>
            <parkingAreaReroute id="1160" visible="true"/>
            <parkingAreaReroute id="1179" visible="true"/>
            <parkingAreaReroute id="1117" visible="true"/>
            <parkingAreaReroute id="1114" visible="true"/>
        </interval>
    </rerouter>
    <rerouter id="1061" edges="153427#0">
        <interval begin="0.0" end="86400">
            <!-- in order of distance --> 
            <parkingAreaReroute id="1061" visible="true"/>
            <parkingAreaReroute id="1067" visible="true"/>
            <parkingAreaReroute id="1065" visible="true"/>
            <parkingAreaReroute id="1062" visible="true"/>
            <parkingAreaReroute id="1068" visible="true"/>
            <parkingAreaReroute id="1167" visible="true"/>
            <parkingAreaReroute id="1095" visible="true"/>
            <parkingAreaReroute id="1180" visible="true"/>
            <parkingAreaReroute id="1090" visible="true"/>
            <parkingAreaReroute id="1096" visible="true"/>
            <parkingAreaReroute id="1127" visible="true"/>
            <parkingAreaReroute id="1166" visible="true"/>
            <parkingAreaReroute id="1181" visible="true"/>
            <parkingAreaReroute id="1172" visible="true"/>
            <parkingAreaReroute id="1097" visible="true"/>
        </interval>
    </rerouter>
    <rerouter id="1062" edges="-153427#5">
        <interval begin="0.0" end="86400">
            <!-- in order of distance --> 
            <parkingAreaReroute id="1062" visible="true"/>
            <parkingAreaReroute id="1065" visible="true"/>
            <parkingAreaReroute id="1067" visible="true"/>
            <parkingAreaReroute id="1061" visible="true"/>
            <parkingAreaReroute id="1167" visible="true"/>
            <parkingAreaReroute id="1095" visible="true"/>
            <parkingAreaReroute id="1180" visible="true"/>
            <parkingAreaReroute id="1090" visible="true"/>
            <parkingAreaReroute id="1096" visible="true"/>
            <parkingAreaReroute id="1127" visible="true"/>
            <parkingAreaReroute id="1166" visible="true"/>
            <parkingAreaReroute id="1181" visible="true"/>
            <parkingAreaReroute id="1172" visible="true"/>
            <parkingAreaReroute id="1097" visible="true"/>
            <parkingAreaReroute id="1098" visible="true"/>
        </interval>
    </rerouter>
    <rerouter id="1063" edges="153547">
        <interval begin="0.0" end="86400">
            <!-- in order of distance --> 
            <parkingAreaReroute id="1063" visible="true"/>
            <parkingAreaReroute id="1163" visible="true"/>
            <parkingAreaReroute id="1108" visible="true"/>
            <parkingAreaReroute id="1124" visible="true"/>
            <parkingAreaReroute id="1168" visible="true"/>
            <parkingAreaReroute id="1160" visible="true"/>
            <parkingAreaReroute id="1128" visible="true"/>
            <parkingAreaReroute id="1142" visible="true"/>
            <parkingAreaReroute id="1159" visible="true"/>
            <parkingAreaReroute id="1183" visible="true"/>
            <parkingAreaReroute id="1121" visible="true"/>
            <parkingAreaReroute id="1179" visible="true"/>
            <parkingAreaReroute id="1117" visible="true"/>
            <parkingAreaReroute id="1114" visible="true"/>
            <parkingAreaReroute id="1162" visible="true"/>
        </interval>
    </rerouter>
    <rerouter id="1064" edges="-152443">
        <interval begin="0.0" end="86400">
            <!-- in order of distance --> 
            <parkingAreaReroute id="1064" visible="true"/>
            <parkingAreaReroute id="1177" visible="true"/>
            <parkingAreaReroute id="1126" visible="true"/>
            <parkingAreaReroute id="1087" visible="true"/>
            <parkingAreaReroute id="1164" visible="true"/>
            <parkingAreaReroute id="1103" visible="true"/>
            <parkingAreaReroute id="1093" visible="true"/>
            <parkingAreaReroute id="1133" visible="true"/>
            <parkingAreaReroute id="1140" visible="true"/>
            <parkingAreaReroute id="1139" visible="true"/>
            <parkingAreaReroute id="1113" visible="true"/>
            <parkingAreaReroute id="1130" visible="true"/>
            <parkingAreaReroute id="1149" visible="true"/>
            <parkingAreaReroute id="1178" visible="true"/>
            <parkingAreaReroute id="1150" visible="true"/>
        </interval>
    </rerouter>
    <rerouter id="1065" edges="152843#2">
        <interval begin="0.0" end="86400">
            <!-- in order of distance --> 
            <parkingAreaReroute id="1065" visible="true"/>
            <parkingAreaReroute id="1067" visible="true"/>
            <parkingAreaReroute id="1061" visible="true"/>
            <parkingAreaReroute id="1062" visible="true"/>
            <parkingAreaReroute id="1068" visible="true"/>
            <parkingAreaReroute id="1167" visible="true"/>
            <parkingAreaReroute id="1095" visible="true"/>
            <parkingAreaReroute id="1180" visible="true"/>
            <parkingAreaReroute id="1090" visible="true"/>
            <parkingAreaReroute id="1096" visible="true"/>
            <parkingAreaReroute id="1127" visible="true"/>
            <parkingAreaReroute id="1166" visible="true"/>
            <parkingAreaReroute id="1181" visible="true"/>
            <parkingAreaReroute id="1172" visible="true"/>
            <parkingAreaReroute id="1097" visible="true"/>
        </interval>
    </rerouter>
    <rerouter id="1066" edges="-153325#2">
        <interval begin="0.0" end="86400">
            <!-- in order of distance --> 
            <parkingAreaReroute id="1066" visible="true"/>
            <parkingAreaReroute id="1165" visible="true"/>
            <parkingAreaReroute id="1060" visible="true"/>
            <parkingAreaReroute id="1125" visible="true"/>
            <parkingAreaReroute id="1102" visible="true"/>
            <parkingAreaReroute id="1170" visible="true"/>
            <parkingAreaReroute id="1088" visible="true"/>
            <parkingAreaReroute id="1108" visible="true"/>
            <parkingAreaReroute id="1184" visible="true"/>
            <parkingAreaReroute id="1063" visible="true"/>
            <parkingAreaReroute id="1163" visible="true"/>
            <parkingAreaReroute id="1160" visible="true"/>
            <parkingAreaReroute id="1179" visible="true"/>
            <parkingAreaReroute id="1117" visible="true"/>
            <parkingAreaReroute id="1114" visible="true"/>
        </interval>
    </rerouter>
    <rerouter id="1067" edges="-153073">
        <interval begin="0.0" end="86400">
            <!-- in order of distance --> 
            <parkingAreaReroute id="1067" visible="true"/>
            <parkingAreaReroute id="1061" visible="true"/>
            <parkingAreaReroute id="1065" visible="true"/>
            <parkingAreaReroute id="1062" visible="true"/>
            <parkingAreaReroute id="1068" visible="true"/>
            <parkingAreaReroute id="1167" visible="true"/>
            <parkingAreaReroute id="1095" visible="true"/>
            <parkingAreaReroute id="1180" visible="true"/>
            <parkingAreaReroute id="1090" visible="true"/>
            <parkingAreaReroute id="1096" visible="true"/>
            <parkingAreaReroute id="1127" visible="true"/>
            <parkingAreaReroute id="1166" visible="true"/>
            <parkingAreaReroute id="1181" visible="true"/>
            <parkingAreaReroute id="1172" visible="true"/>
            <parkingAreaReroute id="1097" visible="true"/>
        </interval>
    </rerouter>
    <rerouter id="1068" edges="-153427#5">
        <interval begin="0.0" end="86400">
            <!-- in order of distance --> 
            <parkingAreaReroute id="1068" visible="true"/>
            <parkingAreaReroute id="1065" visible="true"/>
            <parkingAreaReroute id="1067" visible="true"/>
            <parkingAreaReroute id="1061" visible="true"/>
            <parkingAreaReroute id="1167" visible="true"/>
            <parkingAreaReroute id="1095" visible="true"/>
            <parkingAreaReroute id="1180" visible="true"/>
            <parkingAreaReroute id="1090" visible="true"/>
            <parkingAreaReroute id="1096" visible="true"/>
            <parkingAreaReroute id="1127" visible="true"/>
            <parkingAreaReroute id="1166" visible="true"/>
            <parkingAreaReroute id="1181" visible="true"/>
            <parkingAreaReroute id="1172" visible="true"/>
            <parkingAreaReroute id="1097" visible="true"/>
            <parkingAreaReroute id="1098" visible="true"/>
        </interval>
    </rerouter>
    <rerouter id="1069" edges="152952#0">
        <interval begin="0.0" end="86400">
            <!-- in order of distance --> 
            <parkingAreaReroute id="1069" visible="true"/>
            <parkingAreaReroute id="1092" visible="true"/>
        </interval>
    </rerouter>
    <rerouter id="1070" edges="152955">
        <interval begin="0.0" end="86400">
            <!-- in order of distance --> 
            <parkingAreaReroute id="1070" visible="true"/>
        </interval>
    </rerouter>
    <rerouter id="1071" edges="152435">
        <interval begin="0.0" end="86400">
            <!-- in order of distance --> 
            <parkingAreaReroute id="1071" visible="true"/>
        </interval>
    </rerouter>
    <rerouter id="1072" edges="152430#1">
        <interval begin="0.0" end="86400">
            <!-- in order of distance --> 
            <parkingAreaReroute id="1072" visible="true"/>
            <parkingAreaReroute id="1078" visible="true"/>
            <parkingAreaReroute id="1079" visible="true"/>
            <parkingAreaReroute id="1080" visible="true"/>
            <parkingAreaReroute id="1081" visible="true"/>
            <parkingAreaReroute id="1076" visible="true"/>
            <parkingAreaReroute id="1077" visible="true"/>
            <parkingAreaReroute id="1070" visible="true"/>
            <parkingAreaReroute id="1069" visible="true"/>
            <parkingAreaReroute id="1092" visible="true"/>
        </interval>
    </rerouter>
    <rerouter id="1073" edges="152954#1">
        <interval begin="0.0" end="86400">
            <!-- in order of distance --> 
            <parkingAreaReroute id="1073" visible="true"/>
            <parkingAreaReroute id="1078" visible="true"/>
            <parkingAreaReroute id="1079" visible="true"/>
            <parkingAreaReroute id="1080" visible="true"/>
            <parkingAreaReroute id="1081" visible="true"/>
            <parkingAreaReroute id="1076" visible="true"/>