<?xml version="1.0" encoding="UTF-8"?>

<!--
    Monaco SUMO Traffic (MoST) Scenario
    Copyright (C) 2018
    Lara CODECA

    This program is free software: you can redistribute it and/or modify
    it under the terms of the GNU General Public License as published by
    the Free Software Foundation, either version 3 of the License, or
    (at your option) any later version.

    This program is distributed in the hope that it will be useful,
    but WITHOUT ANY WARRANTY; without even the implied warranty of
    MERCHANTABILITY or FITNESS FOR A PARTICULAR PURPOSE.  See the
    GNU General Public License for more details.

    You should have received a copy of the GNU General Public License
    along with this program.  If not, see <http://www.gnu.org/licenses/>.
-->

<additional xmlns:xsi="http://www.w3.org/2001/XMLSchema-instance" xsi:noNamespaceSchemaLocation="http://sumo.dlr.de/xsd/additional_file.xsd"> 
    <parkingArea id="1059" lane="-153421_1" startPos="5.0" endPos="10.0" roadsideCapacity="225" friendlyPos="true"/>
    <parkingArea id="1060" lane="-152336_1" startPos="20.83750313434468" endPos="25.83750313434468" roadsideCapacity="75" friendlyPos="true"/>
    <parkingArea id="1061" lane="153429#0_1" startPos="5.0" endPos="10.0" roadsideCapacity="350" friendlyPos="true"/>
    <parkingArea id="1062" lane="-153429#5_1" startPos="13.075188602389545" endPos="18.075188602389545" roadsideCapacity="350" friendlyPos="true"/>
    <parkingArea id="1063" lane="153549_1" startPos="40.37987408341405" endPos="45.37987408341405" roadsideCapacity="50" friendlyPos="true"/>
    <parkingArea id="1064" lane="-152445_1" startPos="48.83885071020285" endPos="53.83885071020285" roadsideCapacity="250" friendlyPos="true"/>
    <parkingArea id="1065" lane="153065#0_1" startPos="5.0" endPos="10.0" roadsideCapacity="50" friendlyPos="true"/>
    <parkingArea id="1066" lane="-153327#2_1" startPos="153.65293491190752" endPos="158.65293491190752" roadsideCapacity="75" friendlyPos="true"/>
    <parkingArea id="1067" lane="-153075_1" startPos="5.0" endPos="10.0" roadsideCapacity="350" friendlyPos="true"/>
    <parkingArea id="1068" lane="-153429#5_1" startPos="49.650800999179864" endPos="54.650800999179864" roadsideCapacity="500" friendlyPos="true"/>
    <parkingArea id="1069" lane="152954#0_0" startPos="108.94819701067695" endPos="113.94819701067695" roadsideCapacity="30" friendlyPos="true"/>
    <parkingArea id="1070" lane="152957_0" startPos="22.868612293044286" endPos="27.868612293044283" roadsideCapacity="10" friendlyPos="true"/>
    <parkingArea id="1071" lane="152437_0" startPos="33.91169562813192" endPos="38.911695628131916" roadsideCapacity="10" friendlyPos="true"/>
    <parkingArea id="1072" lane="152952#1_0" startPos="5.0" endPos="10.0" roadsideCapacity="10" friendlyPos="true"/>
    <parkingArea id="1073" lane="152956#1_0" startPos="15.09527880416191" endPos="20.09527880416191" roadsideCapacity="10" friendlyPos="true"/>
    <parkingArea id="1074" lane="152432#1_0" startPos="23.754673498468975" endPos="28.75467349846898" roadsideCapacity="10" friendlyPos="true"/>
    <parkingArea id="1075" lane="152432#1_0" startPos="51.82727044568794" endPos="56.827270445687944" roadsideCapacity="10" friendlyPos="true"/>
    <parkingArea id="1076" lane="152436_0" startPos="10.831684064663394" endPos="15.831684064663394" roadsideCapacity="10" friendlyPos="true"/>
    <parkingArea id="1077" lane="152436_0" startPos="38.551723699566914" endPos="43.551723699566914" roadsideCapacity="10" friendlyPos="true"/>
    <parkingArea id="1078" lane="152953_0" startPos="40.61658673344827" endPos="45.61658673344827" roadsideCapacity="10" friendlyPos="true"/>
    <parkingArea id="1079" lane="152953_0" startPos="12.159376571342108" endPos="17.159376571342108" roadsideCapacity="10" friendlyPos="true"/>
    <parkingArea id="1080" lane="152956#4_0" startPos="12.924359338905218" endPos="17.92435933890522" roadsideCapacity="10" friendlyPos="true"/>
    <parkingArea id="1081" lane="152956#4_0" startPos="38.89976839489181" endPos="43.89976839489181" roadsideCapacity="10" friendlyPos="true"/>
    <parkingArea id="1082" lane="152439_0" startPos="7.420000000000002" endPos="12.420000000000002" roadsideCapacity="10" friendlyPos="true"/>
    <parkingArea id="1083" lane="152988#0_0" startPos="31.209252616451423" endPos="36.20925261645142" roadsideCapacity="50" friendlyPos="true"/>
    <parkingArea id="1084" lane="152980_0" startPos="67.65270464275225" endPos="72.65270464275227" roadsideCapacity="50" friendlyPos="true"/>
    <parkingArea id="1085" lane="152530#1_0" startPos="74.038132078211" endPos="79.038132078211" roadsideCapacity="50" friendlyPos="true"/>
    <parkingArea id="1086" lane="152152_0" startPos="40.01369263546633" endPos="45.01369263546633" roadsideCapacity="30" friendlyPos="true"/>
    <parkingArea id="1087" lane="-152406_1" startPos="12.647998081102791" endPos="17.64799808110279" roadsideCapacity="150" friendlyPos="true"/>
    <parkingArea id="1088" lane="152553_1" startPos="49.53561309541978" endPos="54.53561309541978" roadsideCapacity="550" friendlyPos="true"/>
    <parkingArea id="1089" lane="152534_1" startPos="276.3134929605145" endPos="281.3134929605145" roadsideCapacity="250" friendlyPos="true"/>
    <parkingArea id="1090" lane="152736#1_1" startPos="143.84062417833363" endPos="148.84062417833363" roadsideCapacity="250" friendlyPos="true"/>
    <parkingArea id="1091" lane="-153462_1" startPos="26.334127294388516" endPos="31.334127294388516" roadsideCapacity="3500" friendlyPos="true"/>
    <parkingArea id="1092" lane="152954#1_0" startPos="17.019695849726894" endPos="22.019695849726894" roadsideCapacity="30" friendlyPos="true"/>
    <parkingArea id="1093" lane="-152929_1" startPos="127.46073652542965" endPos="132.46073652542967" roadsideCapacity="75" friendlyPos="true"/>
    <parkingArea id="1094" lane="152330_1" startPos="107.62628797595369" endPos="112.62628797595369" roadsideCapacity="250" friendlyPos="true"/>
    <parkingArea id="1095" lane="153435#1_1" startPos="90.31530677445556" endPos="95.31530677445558" roadsideCapacity="1500" friendlyPos="true"/>
    <parkingArea id="1096" lane="152736#1_1" startPos="260.8867804720804" endPos="265.8867804720804" roadsideCapacity="250" friendlyPos="true"/>
    <parkingArea id="1097" lane="152415#3_1" startPos="398.0531024597773" endPos="403.0531024597773" roadsideCapacity="100" friendlyPos="true"/>
    <parkingArea id="1098" lane="152415#3_1" startPos="1233.7086108474853" endPos="1238.7086108474853" roadsideCapacity="100" friendlyPos="true"/>
    <parkingArea id="1099" lane="152357_0" startPos="16.956111907943686" endPos="21.956111907943686" roadsideCapacity="50" friendlyPos="true"/>
    <parkingArea id="1100" lane="-152994_1" startPos="148.13085989598937" endPos="153.13085989598937" roadsideCapacity="75" friendlyPos="true"/>
    <parkingArea id="1101" lane="153658_1" startPos="218.03532346598908" endPos="223.03532346598908" roadsideCapacity="250" friendlyPos="true"/>
    <parkingArea id="1102" lane="-153014#0_1" startPos="476.1417521326987" endPos="481.1417521326987" roadsideCapacity="50" friendlyPos="true"/>
    <parkingArea id="1103" lane="-153645_1" startPos="11.886955217783731" endPos="16.88695521778373" roadsideCapacity="75" friendlyPos="true"/>
    <parkingArea id="1104" lane="152651#1_1" startPos="88.72406512309031" endPos="93.72406512309033" roadsideCapacity="250" friendlyPos="true"/>
    <parkingArea id="1105" lane="153397_1" startPos="153.2539571943521" endPos="158.2539571943521" roadsideCapacity="100" friendlyPos="true"/>
    <parkingArea id="1106" lane="152330_1" startPos="582.04" endPos="587.04" roadsideCapacity="2500" friendlyPos="true"/>
    <parkingArea id="1107" lane="-153493#0_1" startPos="95.23943451800747" endPos="100.23943451800747" roadsideCapacity="250" friendlyPos="true"/>
    <parkingArea id="1108" lane="-153482#7_1" startPos="16.586941257149164" endPos="21.58694125714916" roadsideCapacity="550" friendlyPos="true"/>
    <parkingArea id="1109" lane="152468#0_1" startPos="17.747394988410875" endPos="22.747394988410875" roadsideCapacity="750" friendlyPos="true"/>
    <parkingArea id="1110" lane="153486#1_1" startPos="14.536763190230442" endPos="19.53676319023044" roadsideCapacity="75" friendlyPos="true"/>
    <parkingArea id="1111" lane="152826#1_1" startPos="46.626601819994534" endPos="51.626601819994534" roadsideCapacity="75" friendlyPos="true"/>
    <parkingArea id="1112" lane="152914#2_1" startPos="53.90308031008634" endPos="58.90308031008634" roadsideCapacity="250" friendlyPos="true"/>
    <parkingArea id="1113" lane="152975_1" startPos="107.9550329358557" endPos="112.9550329358557" roadsideCapacity="2500" friendlyPos="true"/>
    <parkingArea id="1114" lane="-152655_1" startPos="50.278552356266886" endPos="55.278552356266886" roadsideCapacity="75" friendlyPos="true"/>
    <parkingArea id="1115" lane="-152653_1" startPos="30.39" endPos="35.39" roadsideCapacity="35" friendlyPos="true"/>
    <parkingArea id="1116" lane="152773_1" startPos="149.97" endPos="154.97" roadsideCapacity="1500" friendlyPos="true"/>
    <parkingArea id="1117" lane="152654#1_1" startPos="23.04894322667777" endPos="28.04894322667777" roadsideCapacity="75" friendlyPos="true"/>
    <parkingArea id="1118" lane="153641_1" startPos="13.567015902151208" endPos="18.56701590215121" roadsideCapacity="1500" friendlyPos="true"/>
    <parkingArea id="1119" lane="-152662#0_1" startPos="88.04358741121975" endPos="93.04358741121975" roadsideCapacity="35" friendlyPos="true"/>
    <parkingArea id="1120" lane="153402_1" startPos="7.691157445522087" endPos="12.691157445522087" roadsideCapacity="75" friendlyPos="true"/>
    <parkingArea id="1121" lane="152666#4_1" startPos="5.699999999999999" endPos="10.7" roadsideCapacity="75" friendlyPos="true"/>
    <parkingArea id="1122" lane="-152994_1" startPos="862.8489979439021" endPos="867.8489979439021" roadsideCapacity="250" friendlyPos="true"/>
    <parkingArea id="1123" lane="152826#1_1" startPos="27.333781912059724" endPos="32.33378191205972" roadsideCapacity="1500" friendlyPos="true"/>
    <parkingArea id="1124" lane="-152603_1" startPos="5.0" endPos="10.0" roadsideCapacity="1250" friendlyPos="true"/>
    <parkingArea id="1125" lane="153357#1_1" startPos="29.07" endPos="34.07" roadsideCapacity="250" friendlyPos="true"/>
    <parkingArea id="1126" lane="153478#24_1" startPos="22.897450442092538" endPos="27.897450442092538" roadsideCapacity="1500" friendlyPos="true"/>
    <parkingArea id="1127" lane="-152741_1" startPos="41.49028532596053" endPos="46.49028532596053" roadsideCapacity="75" friendlyPos="true"/>
    <parkingArea id="1128" lane="-152482_1" startPos="466.93" endPos="471.93" roadsideCapacity="1250" friendlyPos="true"/>
    <parkingArea id="1129" lane="152822_1" startPos="21.443343875766097" endPos="26.443343875766097" roadsideCapacity="225" friendlyPos="true"/>
    <parkingArea id="1130" lane="-152816#1_1" startPos="6.711221417380036" endPos="11.711221417380036" roadsideCapacity="250" friendlyPos="true"/>
    <parkingArea id="1131" lane="-152777#4_1" startPos="14.300912190324658" endPos="19.300912190324656" roadsideCapacity="35" friendlyPos="true"/>
    <parkingArea id="1132" lane="153011#0_1" startPos="21.460277412315484" endPos="26.460277412315484" roadsideCapacity="1000" friendlyPos="true"/>
    <parkingArea id="1133" lane="-152902#1_1" startPos="47.09" endPos="52.09" roadsideCapacity="6500" friendlyPos="true"/>
    <parkingArea id="1134" lane="152396_1" startPos="52.4317578414274" endPos="57.4317578414274" roadsideCapacity="50" friendlyPos="true"/>
    <parkingArea id="1135" lane="-152399#2_1" startPos="19.49989318155838" endPos="24.49989318155838" roadsideCapacity="1500" friendlyPos="true"/>
    <parkingArea id="1136" lane="-152387#1_1" startPos="10.649999999999999" endPos="15.649999999999999" roadsideCapacity="750" friendlyPos="true"/>
    <parkingArea id="1137" lane="-152135_1" startPos="20.312106434961176" endPos="25.312106434961176" roadsideCapacity="750" friendlyPos="true"/>
    <parkingArea id="1138" lane="152820#3_1" startPos="44.330979882912864" endPos="49.330979882912864" roadsideCapacity="750" friendlyPos="true"/>
    <parkingArea id="1139" lane="-152901#0_1" startPos="33.552565714040355" endPos="38.552565714040355" roadsideCapacity="75" friendlyPos="true"/>
    <parkingArea id="1140" lane="-152901#1_1" startPos="110.34858650976015" endPos="115.34858650976015" roadsideCapacity="75" friendlyPos="true"/>
    <parkingArea id="1141" lane="152804_1" startPos="23.740000000000002" endPos="28.740000000000002" roadsideCapacity="75" friendlyPos="true"/>
    <parkingArea id="1142" lane="-152583#0_1" startPos="52.25395728361974" endPos="57.25395728361974" roadsideCapacity="250" friendlyPos="true"/>
    <parkingArea id="1143" lane="152782_1" startPos="32.70240131102198" endPos="37.70240131102198" roadsideCapacity="750" friendlyPos="true"/>
    <parkingArea id="1144" lane="-153561#2_1" startPos="7.279718809863873" endPos="12.279718809863873" roadsideCapacity="750" friendlyPos="true"/>
    <parkingArea id="1145" lane="152798#0_1" startPos="5.0" endPos="10.0" roadsideCapacity="1000" friendlyPos="true"/>
    <parkingArea id="1146" lane="152969_1" startPos="43.284553513873696" endPos="48.284553513873696" roadsideCapacity="750" friendlyPos="true"/>
    <parkingArea id="1147" lane="-152806_1" startPos="83.3413645844389" endPos="88.3413645844389" roadsideCapacity="750" friendlyPos="true"/>
    <parkingArea id="1149" lane="152397#1_1" startPos="16.19038522877465" endPos="21.19038522877465" roadsideCapacity="75" friendlyPos="true"/>
    <parkingArea id="1150" lane="152397#2_1" startPos="5.0" endPos="10.0" roadsideCapacity="50" friendlyPos="true"/>
    <parkingArea id="1151" lane="152453_1" startPos="40.16923210112182" endPos="45.16923210112182" roadsideCapacity="750" friendlyPos="true"/>
    <parkingArea id="1152" lane="152679#5_1" startPos="34.44" endPos="39.44" roadsideCapacity="250" friendlyPos="true"/>
    <parkingArea id="1153" lane="152834#1_1" startPos="8.04353356327963" endPos="13.04353356327963" roadsideCapacity="1000" friendlyPos="true"/>
    <parkingArea id="1154" lane="-152816#4_1" startPos="151.66605717721026" endPos="156.66605717721026" roadsideCapacity="75" friendlyPos="true"/>
    <parkingArea id="1155" lane="-152816#4_1" startPos="60.98972276658445" endPos="65.98972276658445" roadsideCapacity="50" friendlyPos="true"/>
    <parkingArea id="1156" lane="-152690#1_1" startPos="28.071105639149128" endPos="33.071105639149124" roadsideCapacity="750" friendlyPos="true"/>
    <parkingArea id="1157" lane="152424#0_1" startPos="21.627040846320085" endPos="26.627040846320085" roadsideCapacity="100" friendlyPos="true"/>
    <parkingArea id="1158" lane="152381_1" startPos="302.5" endPos="307.5" roadsideCapacity="1500" friendlyPos="true"/>
    <parkingArea id="1159" lane="152614_1" startPos="5.0" endPos="10.0" roadsideCapacity="550" friendlyPos="true"/>
    <parkingArea id="1160" lane="-152607#0_1" startPos="93.37523809290434" endPos="98.37523809290434" roadsideCapacity="1250" friendlyPos="true"/>
    <parkingArea id="1161" lane="-152951_1" startPos="8.76416353955643" endPos="13.764163539556431" roadsideCapacity="750" friendlyPos="true"/>
    <parkingArea id="1162" lane="-152675_1" startPos="21.328831276418114" endPos="26.328831276418114" roadsideCapacity="1250" friendlyPos="true"/>
    <parkingArea id="1163" lane="-152589#1_1" startPos="28.790377117105066" endPos="33.790377117105066" roadsideCapacity="550" friendlyPos="true"/>
    <parkingArea id="1164" lane="-153463#1_1" startPos="42.248818842142285" endPos="47.248818842142285" roadsideCapacity="1500" friendlyPos="true"/>
    <parkingArea id="1165" lane="-153327#1_1" startPos="34.20876129163267" endPos="39.20876129163267" roadsideCapacity="250" friendlyPos="true"/>
    <parkingArea id="1166" lane="153050#1_1" startPos="44.462969716222005" endPos="49.462969716222005" roadsideCapacity="250" friendlyPos="true"/>
    <parkingArea id="1167" lane="-152931_1" startPos="49.53627959098816" endPos="54.53627959098816" roadsideCapacity="1500" friendlyPos="true"/>
    <parkingArea id="1168" lane="-152462_1" startPos="107.24505652830429" endPos="112.24505652830429" roadsideCapacity="1250" friendlyPos="true"/>
    <parkingArea id="1169" lane="152938_1" startPos="15.317683828075115" endPos="20.317683828075115" roadsideCapacity="75" friendlyPos="true"/>
    <parkingArea id="1170" lane="-153014#0_1" startPos="1476.8338378713638" endPos="1481.8338378713638" roadsideCapacity="75" friendlyPos="true"/>
    <parkingArea id="1171" lane="152397#2_1" startPos="88.68595081894303" endPos="93.68595081894303" roadsideCapacity="75" friendlyPos="true"/>
    <parkingArea id="1172" lane="153453#7_1" startPos="390.58677376337823" endPos="395.58677376337823" roadsideCapacity="25" friendlyPos="true"/>
    <parkingArea id="1173" lane="-153566_1" startPos="16.87" endPos="21.87" roadsideCapacity="75" friendlyPos="true"/>
    <parkingArea id="1174" lane="-153026_1" startPos="98.51485565702913" endPos="103.51485565702913" roadsideCapacity="750" friendlyPos="true"/>
    <parkingArea id="1175" lane="153551#0_1" startPos="5.0" endPos="10.0" roadsideCapacity="1000" friendlyPos="true"/>
    <parkingArea id="1176" lane="152381_1" startPos="5.0" endPos="10.0" roadsideCapacity="225" friendlyPos="true"/>
    <parkingArea id="1177" lane="153481#0_1" startPos="82.03143613728447" endPos="87.03143613728447" roadsideCapacity="150" friendlyPos="true"/>
    <parkingArea id="1178" lane="-152940#1_1" startPos="61.5079760654871" endPos="66.5079760654871" roadsideCapacity="1000" friendlyPos="true"/>
    <parkingArea id="1179" lane="-152610_1" startPos="17.26906230010131" endPos="22.26906230010131" roadsideCapacity="1250" friendlyPos="true"/>
    <parkingArea id="1180" lane="153492#0_1" startPos="76.8" endPos="81.8" roadsideCapacity="500" friendlyPos="true"/>
    <parkingArea id="1181" lane="152626#0_1" startPos="5.0" endPos="10.0" roadsideCapacity="3500" friendlyPos="true"/>
    <parkingArea id="1182" lane="152860_1" startPos="7.421533318905138" endPos="12.421533318905139" roadsideCapacity="75" friendlyPos="true"/>
    <parkingArea id="1183" lane="153325#4_1" startPos="199.76181281882492" endPos="204.76181281882495" roadsideCapacity="250" friendlyPos="true"/>
    <parkingArea id="1184" lane="-153325#1_1" startPos="33.56588023465999" endPos="38.56588023466" roadsideCapacity="75" friendlyPos="true"/>
    <parkingArea id="1185" lane="152153_0" startPos="64.20736997596153" endPos="69.20736997596153" roadsideCapacity="50" friendlyPos="true"/>
    <parkingArea id="1186" lane="152325_1" startPos="428.48361208337946" endPos="433.48361208337946" roadsideCapacity="350" friendlyPos="true"/>
    <rerouter id="1059" edges="-153421">
        <interval begin="0.0" end="86400">
            <!-- in order of distance --> 
            <parkingAreaReroute id="1059" visible="true"/>
            <parkingAreaReroute id="1110" visible="true"/>
            <parkingAreaReroute id="1130" visible="true"/>
            <parkingAreaReroute id="1154" visible="true"/>
            <parkingAreaReroute id="1155" visible="true"/>
            <parkingAreaReroute id="1143" visible="true"/>
            <parkingAreaReroute id="1109" visible="true"/>
            <parkingAreaReroute id="1156" visible="true"/>
            <parkingAreaReroute id="1131" visible="false"/>
            <parkingAreaReroute id="1120" visible="true"/>
            <parkingAreaReroute id="1140" visible="true"/>
            <parkingAreaReroute id="1104" visible="true"/>
            <parkingAreaReroute id="1139" visible="true"/>
            <parkingAreaReroute id="1152" visible="true"/>
            <parkingAreaReroute id="1114" visible="true"/>
        </interval>
    </rerouter>
    <rerouter id="1060" edges="-152336">
        <interval begin="0.0" end="86400">
            <!-- in order of distance --> 
            <parkingAreaReroute id="1060" visible="true"/>
            <parkingAreaReroute id="1125" visible="true"/>
            <parkingAreaReroute id="1165" visible="true"/>
            <parkingAreaReroute id="1066" visible="true"/>
            <parkingAreaReroute id="1088" visible="true"/>
            <parkingAreaReroute id="1102" visible="true"/>
            <parkingAreaReroute id="1170" visible="true"/>
            <parkingAreaReroute id="1108" visible="true"/>
            <parkingAreaReroute id="1184" visible="true"/>
            <parkingAreaReroute id="1063" visible="true"/>
            <parkingAreaReroute id="1163" visible="true"/>
            <parkingAreaReroute id="1160" visible="true"/>
            <parkingAreaReroute id="1179" visible="true"/>
            <parkingAreaReroute id="1117" visible="true"/>
            <parkingAreaReroute id="1114" visible="true"/>
        </interval>
    </rerouter>
    <rerouter id="1061" edges="153429#0">
        <interval begin="0.0" end="86400">
            <!-- in order of distance --> 
            <parkingAreaReroute id="1061" visible="true"/>
            <parkingAreaReroute id="1067" visible="true"/>
            <parkingAreaReroute id="1065" visible="true"/>
            <parkingAreaReroute id="1062" visible="true"/>
            <parkingAreaReroute id="1068" visible="true"/>
            <parkingAreaReroute id="1167" visible="true"/>
            <parkingAreaReroute id="1095" visible="true"/>
            <parkingAreaReroute id="1181" visible="true"/>
            <parkingAreaReroute id="1180" visible="true"/>
            <parkingAreaReroute id="1090" visible="true"/>
            <parkingAreaReroute id="1096" visible="true"/>
            <parkingAreaReroute id="1127" visible="true"/>
            <parkingAreaReroute id="1166" visible="true"/>
            <parkingAreaReroute id="1172" visible="false"/>
            <parkingAreaReroute id="1097" visible="true"/>
        </interval>
    </rerouter>
    <rerouter id="1062" edges="-153429#5">
        <interval begin="0.0" end="86400">
            <!-- in order of distance --> 
            <parkingAreaReroute id="1062" visible="true"/>
            <parkingAreaReroute id="1065" visible="true"/>
            <parkingAreaReroute id="1067" visible="true"/>
            <parkingAreaReroute id="1061" visible="true"/>
            <parkingAreaReroute id="1167" visible="true"/>
            <parkingAreaReroute id="1095" visible="true"/>
            <parkingAreaReroute id="1181" visible="true"/>
            <parkingAreaReroute id="1180" visible="true"/>
            <parkingAreaReroute id="1090" visible="true"/>
            <parkingAreaReroute id="1096" visible="true"/>
            <parkingAreaReroute id="1127" visible="true"/>
            <parkingAreaReroute id="1166" visible="true"/>
            <parkingAreaReroute id="1172" visible="false"/>
            <parkingAreaReroute id="1097" visible="true"/>
            <parkingAreaReroute id="1098" visible="true"/>
        </interval>
    </rerouter>
    <rerouter id="1063" edges="153549">
        <interval begin="0.0" end="86400">
            <!-- in order of distance --> 
            <parkingAreaReroute id="1063" visible="true"/>
            <parkingAreaReroute id="1163" visible="true"/>
            <parkingAreaReroute id="1108" visible="true"/>
            <parkingAreaReroute id="1159" visible="true"/>
            <parkingAreaReroute id="1124" visible="true"/>
            <parkingAreaReroute id="1168" visible="true"/>
            <parkingAreaReroute id="1160" visible="true"/>
            <parkingAreaReroute id="1128" visible="true"/>
            <parkingAreaReroute id="1121" visible="true"/>
            <parkingAreaReroute id="1183" visible="true"/>
            <parkingAreaReroute id="1142" visible="true"/>
            <parkingAreaReroute id="1179" visible="true"/>
            <parkingAreaReroute id="1117" visible="true"/>
            <parkingAreaReroute id="1114" visible="true"/>
            <parkingAreaReroute id="1162" visible="true"/>
        </interval>
    </rerouter>
    <rerouter id="1064" edges="-152445">
        <interval begin="0.0" end="86400">
            <!-- in order of distance --> 
            <parkingAreaReroute id="1064" visible="true"/>
            <parkingAreaReroute id="1177" visible="true"/>
            <parkingAreaReroute id="1126" visible="true"/>
            <parkingAreaReroute id="1087" visible="true"/>
            <parkingAreaReroute id="1103" visible="true"/>
            <parkingAreaReroute id="1093" visible="true"/>
            <parkingAreaReroute id="1133" visible="true"/>
            <parkingAreaReroute id="1140" visible="true"/>
            <parkingAreaReroute id="1139" visible="true"/>
            <parkingAreaReroute id="1113" visible="true"/>
            <parkingAreaReroute id="1130" visible="true"/>
            <parkingAreaReroute id="1149" visible="true"/>
            <parkingAreaReroute id="1144" visible="true"/>
            <parkingAreaReroute id="1150" visible="true"/>
            <parkingAreaReroute id="1171" visible="true"/>
        </interval>
    </rerouter>
    <rerouter id="1065" edges="153065#0">
        <interval begin="0.0" end="86400">
            <!-- in order of distance --> 
            <parkingAreaReroute id="1065" visible="true"/>
            <parkingAreaReroute id="1067" visible="true"/>
            <parkingAreaReroute id="1061" visible="true"/>
            <parkingAreaReroute id="1062" visible="true"/>
            <parkingAreaReroute id="1068" visible="true"/>
            <parkingAreaReroute id="1167" visible="true"/>
            <parkingAreaReroute id="1095" visible="true"/>
            <parkingAreaReroute id="1181" visible="true"/>
            <parkingAreaReroute id="1180" visible="true"/>
            <parkingAreaReroute id="1090" visible="true"/>
            <parkingAreaReroute id="1096" visible="true"/>
            <parkingAreaReroute id="1127" visible="true"/>
            <parkingAreaReroute id="1166" visible="true"/>
            <parkingAreaReroute id="1172" visible="false"/>
            <parkingAreaReroute id="1097" visible="true"/>
        </interval>
    </rerouter>
    <rerouter id="1066" edges="-153327#2">
        <interval begin="0.0" end="86400">
            <!-- in order of distance --> 
            <parkingAreaReroute id="1066" visible="true"/>
            <parkingAreaReroute id="1165" visible="true"/>
            <parkingAreaReroute id="1060" visible="true"/>
            <parkingAreaReroute id="1125" visible="true"/>
            <parkingAreaReroute id="1088" visible="true"/>
            <parkingAreaReroute id="1102" visible="true"/>
            <parkingAreaReroute id="1170" visible="true"/>
            <parkingAreaReroute id="1108" visible="true"/>
            <parkingAreaReroute id="1184" visible="true"/>
            <parkingAreaReroute id="1063" visible="true"/>
            <parkingAreaReroute id="1163" visible="true"/>
            <parkingAreaReroute id="1160" visible="true"/>
            <parkingAreaReroute id="1179" visible="true"/>
            <parkingAreaReroute id="1117" visible="true"/>
            <parkingAreaReroute id="1114" visible="true"/>
        </interval>
    </rerouter>
    <rerouter id="1067" edges="-153075">
        <interval begin="0.0" end="86400">
            <!-- in order of distance --> 
            <parkingAreaReroute id="1067" visible="true"/>
            <parkingAreaReroute id="1061" visible="true"/>
            <parkingAreaReroute id="1065" visible="true"/>
            <parkingAreaReroute id="1062" visible="true"/>
            <parkingAreaReroute id="1068" visible="true"/>
            <parkingAreaReroute id="1167" visible="true"/>
            <parkingAreaReroute id="1095" visible="true"/>
            <parkingAreaReroute id="1181" visible="true"/>
            <parkingAreaReroute id="1180" visible="true"/>
            <parkingAreaReroute id="1090" visible="true"/>
            <parkingAreaReroute id="1096" visible="true"/>
            <parkingAreaReroute id="1127" visible="true"/>
            <parkingAreaReroute id="1166" visible="true"/>
            <parkingAreaReroute id="1172" visible="false"/>
            <parkingAreaReroute id="1097" visible="true"/>
        </interval>
    </rerouter>
    <rerouter id="1068" edges="-153429#5">
        <interval begin="0.0" end="86400">
            <!-- in order of distance --> 
            <parkingAreaReroute id="1068" visible="true"/>
            <parkingAreaReroute id="1065" visible="true"/>
            <parkingAreaReroute id="1067" visible="true"/>
            <parkingAreaReroute id="1061" visible="true"/>
            <parkingAreaReroute id="1167" visible="true"/>
            <parkingAreaReroute id="1095" visible="true"/>
            <parkingAreaReroute id="1181" visible="true"/>
            <parkingAreaReroute id="1180" visible="true"/>
            <parkingAreaReroute id="1090" visible="true"/>
            <parkingAreaReroute id="1096" visible="true"/>
            <parkingAreaReroute id="1127" visible="true"/>
            <parkingAreaReroute id="1166" visible="true"/>
            <parkingAreaReroute id="1172" visible="false"/>
            <parkingAreaReroute id="1097" visible="true"/>
            <parkingAreaReroute id="1098" visible="true"/>
        </interval>
    </rerouter>
    <rerouter id="1069" edges="152954#0">
        <interval begin="0.0" end="86400">
            <!-- in order of distance --> 
            <parkingAreaReroute id="1069" visible="true"/>
            <parkingAreaReroute id="1092" visible="false"/>
        </interval>
    </rerouter>
    <rerouter id="1070" edges="152957">
        <interval begin="0.0" end="86400">
            <!-- in order of distance --> 
            <parkingAreaReroute id="1070" visible="true"/>
        </interval>
    </rerouter>
    <rerouter id="1071" edges="152437">
        <interval begin="0.0" end="86400">
            <!-- in order of distance --> 
            <parkingAreaReroute id="1071" visible="true"/>
        </interval>
    </rerouter>