<?xml version="1.0" encoding="UTF-8"?>

<!--
    Monaco SUMO Traffic (MoST) Scenario
    Copyright (C) 2018
    Lara CODECA

    This program is free software: you can redistribute it and/or modify
    it under the terms of the GNU General Public License as published by
    the Free Software Foundation, either version 3 of the License, or
    (at your option) any later version.

    This program is distributed in the hope that it will be useful,
    but WITHOUT ANY WARRANTY; without even the implied warranty of
    MERCHANTABILITY or FITNESS FOR A PARTICULAR PURPOSE.  See the
    GNU General Public License for more details.

    You should have received a copy of the GNU General Public License
    along with this program.  If not, see <http://www.gnu.org/licenses/>.
-->

<additional xmlns:xsi="http://www.w3.org/2001/XMLSchema-instance" xsi:noNamespaceSchemaLocation="http://sumo.dlr.de/xsd/additional_file.xsd"> 
    <busStop id="131019" name="131019" lane="152333#0_1" startPos="360.4089072466573" endPos="375.40890724665735" lines="M3:Hospital" friendlyPos="true"/> <!-- 131019 -->
    <busStop id="131020" name="131020" lane="152912#8_1" startPos="445.52683860193054" endPos="460.52683860193054" lines="M3:Hospital" friendlyPos="true"/> <!-- 131020 -->
    <busStop id="131021" name="Rotondes" lane="-152818#5_1" startPos="5.210000000000001" endPos="20.21" lines="3:Otto" friendlyPos="true"/> <!-- 131021 -->
    <busStop id="131022" name="131022" lane="-152169_1" startPos="15.177610802795574" endPos="30.177610802795577" lines="M3:Turbie" friendlyPos="true"/> <!-- 131022 -->
    <busStop id="131024" name="131024" lane="-152413#0_1" startPos="1365.819961936734" endPos="1380.8199619367342" lines="M3:Turbie" friendlyPos="true"/> <!-- 131024 -->
    <busStop id="131026" name="Cimetiere" lane="-152942#2_1" startPos="100.85183695150855" endPos="115.85183695150855" lines="3:Otto" friendlyPos="true"/> <!-- 131026 -->
    <busStop id="131027" name="Bois Joli" lane="152924#2_1" startPos="44.389664612461615" endPos="59.389664612461615" lines="M4:HotelVille" friendlyPos="true"/> <!-- 131027 -->
    <busStop id="131029" name="131029" lane="152169_1" startPos="56.644728585263785" endPos="71.64472858526378" lines="M3:Hospital" friendlyPos="true"/> <!-- 131029 -->
    <busStop id="131030" name="La Turbie Marie" lane="152912#0_1" startPos="5.379999999999999" endPos="20.38" lines="M3:Hospital M2:Turbie" friendlyPos="true"/> <!-- 131030 -->
    <busStop id="131031" name="Chapelle de Saint-Laurent" lane="-152907_1" startPos="985.5428412451238" endPos="1000.542841245124" lines="M1:France" friendlyPos="true"/> <!-- 131031 -->
    <busStop id="131033" name="131033" lane="-152333#4_1" startPos="153.67121262369727" endPos="168.67121262369727" lines="M3:Turbie" friendlyPos="true"/> <!-- 131033 -->
    <busStop id="131035" name="Les Cigognes" lane="-153015#0_1" startPos="30.473857275989303" endPos="45.4738572759893" lines="M4:Train" friendlyPos="true"/> <!-- 131035 -->
    <busStop id="131036" name="Louis Aureglia" lane="-152974#0_1" startPos="222.3" endPos="237.3" lines="4:SaintRoman" friendlyPos="true"/> <!-- 131036 -->
    <busStop id="131037" name="131037" lane="152333#4_1" startPos="178.51288447250525" endPos="193.51288447250522" lines="M3:Hospital" friendlyPos="true"/> <!-- 131037 -->
    <busStop id="131038" name="131038" lane="152912#6_1" startPos="207.80943128670089" endPos="222.80943128670089" lines="M3:Hospital" friendlyPos="true"/> <!-- 131038 -->
    <busStop id="131039" name="131039" lane="-152333#2_1" startPos="317.8913352507928" endPos="332.8913352507928" lines="M3:Turbie" friendlyPos="true"/> <!-- 131039 -->
    <busStop id="131040" name="131040" lane="-152912#6_1" startPos="434.69594222087215" endPos="449.69594222087215" lines="M3:Turbie" friendlyPos="true"/> <!-- 131040 -->
    <busStop id="131041" name="131041" lane="153484#8_1" startPos="59.48462954874597" endPos="74.48462954874597" lines="" friendlyPos="true"/> <!-- 131041 -->
    <busStop id="131042" name="Monte-Carlo (TAM)" lane="152671#3_1" startPos="6.719919127758226" endPos="21.719919127758224" lines="100:Menton" friendlyPos="true"/> <!-- 131042 -->
    <busStop id="131043" name="Portier" lane="152658#2_1" startPos="21.620802522282133" endPos="36.620802522282126" lines="1:SaintRoman 5:Larvotto 6:Larvotto" friendlyPos="true"/> <!-- 131043 -->
    <busStop id="131044" name="Princesse Stephanie" lane="152390_1" startPos="11.71" endPos="26.71" lines="1:SaintRoman 2:Jardin" friendlyPos="true"/> <!-- 131044 -->
    <busStop id="131045" name="Castelleretto" lane="152974#2_1" startPos="11.3" endPos="26.3" lines="4:Fontvieille" friendlyPos="true"/> <!-- 131045 -->
    <busStop id="131046" name="Honore II" lane="-152799#1_1" startPos="169.43720628527834" endPos="184.43720628527834" lines="4:Fontvieille" friendlyPos="true"/> <!-- 131046 -->
    <busStop id="131047" name="Pont Sainte-Devote" lane="152232_1" startPos="9.64" endPos="24.64" lines="2:Jardin 4:Fontvieille 5:Hopital" friendlyPos="true"/> <!-- 131047 -->
    <busStop id="131048" name="Villa Paloma" lane="152818#3_1" startPos="77.68069348911638" endPos="92.68069348911638" lines="2:Monaco 3:Fontvieille" friendlyPos="true"/> <!-- 131048 -->
    <busStop id="131049" name="Villa Paloma" lane="-152818#3_1" startPos="87.14298643692618" endPos="102.14298643692618" lines="2:Jardin 3:Otto" friendlyPos="true"/> <!-- 131049 -->
    <busStop id="131050" name="Citronniers" lane="152681#3_1" startPos="5.0" endPos="20.0" lines="1:SaintRoman 5:Hopital 6:Fontvieille" friendlyPos="true"/> <!-- 131050 -->
    <busStop id="131051" name="Spelugues" lane="152681#0_1" startPos="103.08731399576278" endPos="118.08731399576278" lines="1:SaintRoman 5:Hopital 6:Fontvieille" friendlyPos="true"/> <!-- 131051 -->
    <busStop id="131054" name="Cimetiere" lane="152942#2_1" startPos="307.43104671025105" endPos="322.43104671025105" lines="3:Fontvieille" friendlyPos="true"/> <!-- 131054 -->
    <busStop id="131055" name="Hopital" lane="152903#1_1" startPos="159.03" endPos="174.03" lines="M3:Hospital 5:Hopital 5:Larvotto 3:Otto" friendlyPos="true"/> <!-- 131055 -->
    <busStop id="131056" name="Athanee" lane="-152942#0_1" startPos="5.0" endPos="20.0" lines="5:Hopital 3:Otto" friendlyPos="true"/> <!-- 131056 -->
    <busStop id="131057" name="Monte-Carlo (Tourisme)" lane="152671#3_1" startPos="5.0" endPos="20.0" lines="1:SaintRoman 2:Jardin 4:SaintRoman 5:Hopital 5:Larvotto 6:Larvotto" friendlyPos="true"/> <!-- 131057 -->
    <busStop id="131058" name="Roseraie" lane="152650_1" startPos="5.0" endPos="20.0" lines="4:SaintRoman 6:Larvotto" friendlyPos="true"/> <!-- 131058 -->
    <busStop id="131059" name="Place du Casino" lane="152681#5_1" startPos="16.83083921615352" endPos="31.83083921615352" lines="1:SaintRoman 5:Hopital 6:Fontvieille" friendlyPos="true"/> <!-- 131059 -->
    <busStop id="131060" name="Place Sainte-Devote (Gare)" lane="152824_1" startPos="36.01715305850847" endPos="51.01715305850847" lines="1:Monaco 2:Monaco 6:Fontvieille 100:Nice 3:Otto" friendlyPos="true"/> <!-- 131060 -->
    <busStop id="131061" name="Saint-Charles" lane="152671#7_1" startPos="13.159063386320469" endPos="28.15906338632047" lines="1:SaintRoman 4:SaintRoman" friendlyPos="true"/> <!-- 131061 -->
    <busStop id="131062" name="Monte-Carlo" lane="152706#1_1" startPos="27.54" endPos="42.54" lines="1:Monaco 2:Monaco 6:Fontvieille" friendlyPos="true"/> <!-- 131062 -->
    <busStop id="131063" name="Square Beaumarchais" lane="152676#2_1" startPos="45.019999999999996" endPos="60.019999999999996" lines="1:Monaco 2:Monaco 6:Fontvieille" friendlyPos="true"/> <!-- 131063 -->
    <busStop id="131067" name="Beaverbrook" lane="153481#22_1" startPos="23.03462510791087" endPos="38.03462510791087" lines="100:Nice" friendlyPos="true"/> <!-- 131067 -->
    <busStop id="131068" name="Casernes" lane="-152997_1" startPos="302.2775841724468" endPos="317.2775841724468" lines="100:Nice" friendlyPos="true"/> <!-- 131068 -->
    <busStop id="131069" name="Moneghetti" lane="152818#6_1" startPos="105.17" endPos="120.17" lines="2:Monaco 3:Fontvieille" friendlyPos="true"/> <!-- 131069 -->
    <busStop id="131070" name="Marche" lane="153358_1" startPos="75.22501981789728" endPos="90.2250198178973" lines="100:Menton" friendlyPos="true"/> <!-- 131070 -->
    <busStop id="131071" name="Casernes" lane="-153017#0_1" startPos="1632.4290802061073" endPos="1647.4290802061073" lines="100:Menton" friendlyPos="true"/> <!-- 131071 -->
    <busStop id="131072" name="Bien Situee" lane="-152997_1" startPos="658.8449373943146" endPos="673.8449373943146" lines="100:Nice" friendlyPos="true"/> <!-- 131072 -->
    <busStop id="131073" name="Place d'Armes (TAM)" lane="-152825#2_1" startPos="10.66230724241614" endPos="25.66230724241614" lines="100:Nice" friendlyPos="true"/> <!-- 131073 -->
    <busStop id="131074" name="Mairie" lane="-152559_1" startPos="977.0462950675609" endPos="992.0462950675609" lines="M5:Ramingao" friendlyPos="true"/> <!-- 131074 -->
    <busStop id="131075" name="Victoria" lane="152558_1" startPos="621.3969043029098" endPos="636.3969043029098" lines="M5:PontUnion" friendlyPos="true"/> <!-- 131075 -->
    <busStop id="131076" name="Le Cirta" lane="-152559_1" startPos="672.9882827032433" endPos="687.9882827032433" lines="M5:Ramingao" friendlyPos="true"/> <!-- 131076 -->
    <busStop id="131077" name="Orchidees" lane="-152962_1" startPos="1334.2897768057126" endPos="1349.2897768057126" lines="M5:PontUnion" friendlyPos="true"/> <!-- 131077 -->
    <busStop id="131078" name="Cypris" lane="-152962_1" startPos="957.8852640083534" endPos="972.8852640083534" lines="M5:PontUnion" friendlyPos="true"/> <!-- 131078 -->
    <busStop id="131079" name="Pont Sainte-Devote" lane="152705#0_1" startPos="11.71" endPos="26.71" lines="2:Monaco 4:SaintRoman 5:Larvotto" friendlyPos="true"/> <!-- 131079 -->
    <busStop id="131080" name="Plages" lane="152539#2_1" startPos="118.69115203028541" endPos="133.6911520302854" lines="5:Hopital 6:Fontvieille" friendlyPos="true"/> <!-- 131080 -->
    <busStop id="131081" name="Varavilla" lane="153381_1" startPos="17.932794074772737" endPos="32.93279407477274" lines="4:Fontvieille" friendlyPos="true"/> <!-- 131081 -->
    <busStop id="131082" name="Portier" lane="152539#6_1" startPos="32.87410353463279" endPos="47.87410353463279" lines="5:Hopital 6:Fontvieille" friendlyPos="true"/> <!-- 131082 -->
    <busStop id="131083" name="Larvotto" lane="152538#7_1" startPos="71.71" endPos="86.71" lines="5:Hopital 5:Larvotto 6:Larvotto 6:Fontvieille" friendlyPos="true"/> <!-- 131083 -->
    <busStop id="131084" name="Place d'Armes (vers Monaco Ville)" lane="-152821#2_1" startPos="5.0" endPos="20.0" lines="2:Monaco" friendlyPos="true"/> <!-- 131084 -->
    <busStop id="131085" name="Saint-Roman (Bus 4)" lane="-152352_1" startPos="5.0" endPos="20.0" lines="4:SaintRoman 4:Fontvieille" friendlyPos="true"/> <!-- 131085 -->
    <busStop id="131086" name="Hopital" lane="152874#5_1" startPos="161.76" endPos="176.76" lines="M3:Turbie 5:Hopital 3:Fontvieille" friendlyPos="true"/> <!-- 131086 -->
    <busStop id="131087" name="Spelugues" lane="-152681#0_1" startPos="62.783530262197566" endPos="77.78353026219756" lines="5:Larvotto 6:Larvotto" friendlyPos="true"/> <!-- 131087 -->
    <busStop id="131088" name="Fontvieille - Centre Commercial" lane="153644_1" startPos="46.34273723073568" endPos="61.34273723073568" lines="4:SaintRoman 4:Fontvieille 6:Larvotto 6:Fontvieille 3:Fontvieille" friendlyPos="true"/> <!-- 131088 -->
    <busStop id="131089" name="Monte-Carlo (TAM)" lane="152706#1_1" startPos="19.635925850660758" endPos="34.63592585066076" lines="100:Nice" friendlyPos="true"/> <!-- 131089 -->
    <busStop id="131090" name="Cremaillere" lane="152177#0_1" startPos="12.185451480725508" endPos="27.185451480725508" lines="2:Jardin 4:Fontvieille 5:Hopital" friendlyPos="true"/> <!-- 131090 -->
    <busStop id="131091" name="Terrasses du Casino" lane="152779#0_1" startPos="23.32405194075496" endPos="38.32405194075496" lines="2:Jardin 6:Larvotto" friendlyPos="true"/> <!-- 131091 -->
    <busStop id="131092" name="Stade Nautique" lane="152820#3_1" startPos="17.505155271138584" endPos="32.505155271138584" lines="1:SaintRoman 2:Jardin 6:Larvotto 3:Otto" friendlyPos="true"/> <!-- 131092 -->
    <busStop id="131093" name="Princesse Antoinette" lane="152820#5_1" startPos="8.611939672180899" endPos="23.6119396721809" lines="1:SaintRoman 2:Jardin 6:Larvotto 3:Otto" friendlyPos="true"/> <!-- 131093 -->
    <busStop id="131094" name="Kennedy" lane="152791#1_1" startPos="62.75822332329085" endPos="77.75822332329085" lines="1:SaintRoman" friendlyPos="true"/> <!-- 131094 -->
    <busStop id="131095" name="Auditorium Rainier III" lane="152766_1" startPos="176.27" endPos="191.27" lines="1:SaintRoman" friendlyPos="true"/> <!-- 131095 -->
    <busStop id="131096" name="Ostende" lane="-152814#1_1" startPos="111.69509796928678" endPos="126.69509796928678" lines="2:Jardin 6:Larvotto" friendlyPos="true"/> <!-- 131096 -->
    <busStop id="131097" name="Roqueville" lane="-152705#3_1" startPos="5.84" endPos="20.84" lines="2:Jardin 4:Fontvieille 5:Hopital" friendlyPos="true"/> <!-- 131097 -->
    <busStop id="131098" name="Moneghetti" lane="-152818#7_1" startPos="5.0" endPos="20.0" lines="2:Jardin 3:Otto" friendlyPos="true"/> <!-- 131098 -->
    <busStop id="131099" name="Louis Aureglia" lane="152974#0_1" startPos="5.0" endPos="20.0" lines="4:Fontvieille" friendlyPos="true"/> <!-- 131099 -->
    <busStop id="131100" name="Castelleretto" lane="-152974#0_1" startPos="7.813791170053538" endPos="22.813791170053538" lines="4:SaintRoman" friendlyPos="true"/> <!-- 131100 -->
    <busStop id="131101" name="Heliport" lane="-152877#3_1" startPos="10.690000000000001" endPos="25.69" lines="4:SaintRoman 6:Larvotto" friendlyPos="true"/> <!-- 131101 -->
    <busStop id="131102" name="Papalins" lane="152455_1" startPos="153.45803188370843" endPos="168.45803188370843" lines="4:SaintRoman 6:Larvotto" friendlyPos="true"/> <!-- 131102 -->
    <busStop id="131103" name="Port de Fontvieille" lane="153643_1" startPos="26.62675344709445" endPos="41.62675344709445" lines="6:Larvotto 3:Otto" friendlyPos="true"/> <!-- 131103 -->
    <busStop id="131104" name="Pasteur" lane="-152942#2_1" startPos="436.326365754743" endPos="451.326365754743" lines="3:Otto" friendlyPos="true"/> <!-- 131104 -->
    <busStop id="131105" name="Observatoire" lane="-152874#4_1" startPos="49.23162080449983" endPos="64.23162080449984" lines="5:Larvotto 3:Otto" friendlyPos="true"/> <!-- 131105 -->
    <busStop id="131106" name="Bosio" lane="-152874#0_1" startPos="62.66" endPos="77.66" lines="5:Larvotto 3:Otto" friendlyPos="true"/> <!-- 131106 -->
    <busStop id="131107" name="Bosio" lane="-152950#0_1" startPos="67.51" endPos="82.51" lines="5:Hopital 3:Fontvieille" friendlyPos="true"/> <!-- 131107 -->
    <busStop id="131108" name="Grimaldi Forum/Villa Sauber" lane="152538#2_1" startPos="132.9412889448293" endPos="147.9412889448293" lines="5:Larvotto 6:Larvotto" friendlyPos="true"/> <!-- 131108 -->
    <busStop id="131109" name="Sea Club" lane="152538#6_1" startPos="133.054344287579" endPos="148.05434428757897" lines="5:Larvotto 6:Larvotto" friendlyPos="true"/> <!-- 131109 -->
    <busStop id="131110" name="Grimaldi Forum/Villa Sauber" lane="152539#4_1" startPos="79.46156825435155" endPos="94.46156825435153" lines="5:Hopital 6:Fontvieille" friendlyPos="true"/> <!-- 131110 -->
    <busStop id="131111" name="Hector Otto" lane="152840#6_1" startPos="42.08278055544728" endPos="57.08278055544728" lines="3:Fontvieille 3:Otto" friendlyPos="true"/> <!-- 131111 -->
    <busStop id="131112" name="Belgique" lane="152818#10_1" startPos="82.422604128472" endPos="97.42260412847199" lines="2:Monaco 3:Fontvieille" friendlyPos="true"/> <!-- 131112 -->
    <busStop id="131114" name="Place d'Armes (Charles III)" lane="-152825#2_1" startPos="22.619999999999997" endPos="37.62" lines="3:Otto" friendlyPos="true"/> <!-- 131114 -->
    <busStop id="131115" name="Place d'Armes (Charles III)" lane="152825#2_1" startPos="23.740000000000002" endPos="38.74" lines="4:SaintRoman 100:Menton 3:Fontvieille" friendlyPos="true"/> <!-- 131115 -->
    <busStop id="131116" name="Monaco Ville (le Rocher)" lane="-152777_1" startPos="14.494428840049832" endPos="29.49442884004983" lines="1:SaintRoman 1:Monaco 2:Jardin 2:Monaco" friendlyPos="true"/> <!-- 131116 -->
    <busStop id="131117" name="Athanee" lane="152942#0_1" startPos="5.0" endPos="20.0" lines="3:Fontvieille" friendlyPos="true"/> <!-- 131117 -->
    <busStop id="131118" name="Place d'Armes (Port)" lane="152806_1" startPos="14.560000000000002" endPos="29.560000000000002" lines="1:SaintRoman 1:Monaco 2:Jardin 4:Fontvieille 6:Fontvieille 3:Fontvieille" friendlyPos="true"/> <!-- 131118 -->
    <busStop id="131119" name="Belgique" lane="-152818#10_1" startPos="12.258203359618168" endPos="27.258203359618168" lines="2:Jardin 3:Otto" friendlyPos="true"/> <!-- 131119 -->
    <busStop id="131120" name="La Vigie" lane="-152836#5_1" startPos="143.67" endPos="158.67" lines="" friendlyPos="true"/> <!-- 131120 -->
    <busStop id="131121" name="Princesse Stephanie" lane="152793#0_1" startPos="5.0" endPos="20.0" lines="4:Fontvieille 6:Fontvieille 3:Fontvieille" friendlyPos="true"/> <!-- 131121 -->
    <busStop id="131122" name="Princesse Florestine" lane="152824_1" startPos="186.87544180498577" endPos="201.87544180498577" lines="1:Monaco 2:Monaco 6:Fontvieille 3:Otto" friendlyPos="true"/> <!-- 131122 -->
    <busStop id="131123" name="Belgique" lane="152950#2_1" startPos="38.11263056900823" endPos="53.11263056900823" lines="5:Larvotto 3:Otto" friendlyPos="true"/> <!-- 131123 -->
    <busStop id="131124" name="La Rousse" lane="-152609#1_1" startPos="33.423609619645056" endPos="48.423609619645056" lines="1:Monaco 4:Fontvieille" friendlyPos="true"/> <!-- 131124 -->
    <busStop id="131125" name="Carmes" lane="-152586#3_1" startPos="9.927707824037011" endPos="24.92770782403701" lines="1:SaintRoman 4:SaintRoman" friendlyPos="true"/> <!-- 131125 -->
    <busStop id="131126" name="Place du Casino" lane="-152681#4_1" startPos="5.0" endPos="20.0" lines="5:Larvotto 6:Larvotto" friendlyPos="true"/> <!-- 131126 -->
    <busStop id="131127" name="La Rousse" lane="152609#2_1" startPos="7.559999999999999" endPos="22.56" lines="1:SaintRoman 4:SaintRoman" friendlyPos="true"/> <!-- 131127 -->
    <busStop id="131128" name="Place des Moulins" lane="-152609#0_1" startPos="64.32420001660974" endPos="79.32420001660974" lines="1:Monaco 4:Fontvieille 100:Nice" friendlyPos="true"/> <!-- 131128 -->
    <busStop id="131129" name="Place des Moulins" lane="152671#11_1" startPos="57.513249910712815" endPos="72.51324991071282" lines="1:SaintRoman 4:SaintRoman" friendlyPos="true"/> <!-- 131129 -->
    <busStop id="131130" name="131130" lane="152705#4_1" startPos="23.503990944533477" endPos="38.50399094453348" lines="" friendlyPos="true"/> <!-- 131130 -->
    <busStop id="131131" name="Plages" lane="152538#4_1" startPos="226.29455966117143" endPos="241.29455966117146" lines="5:Larvotto 6:Larvotto" friendlyPos="true"/> <!-- 131131 -->
    <busStop id="131132" name="Ostende" lane="152814#0_1" startPos="153.75442349812167" endPos="168.75442349812167" lines="1:Monaco 2:Monaco 6:Fontvieille" friendlyPos="true"/> <!-- 131132 -->
    <busStop id="131133" name="Carmes" lane="152586#4_1" startPos="20.049294001843116" endPos="35.049294001843116" lines="1:Monaco 4:Fontvieille" friendlyPos="true"/> <!-- 131133 -->
    <busStop id="131134" name="Saint-Charles" lane="-152657_1" startPos="64.84" endPos="79.84" lines="1:Monaco 4:Fontvieille" friendlyPos="true"/> <!-- 131134 -->
    <busStop id="131135" name="Rotondes" lane="-152818#4_1" startPos="128.8630740370474" endPos="143.8630740370474" lines="2:Jardin" friendlyPos="true"/> <!-- 131135 -->
    <busStop id="131136" name="Rotondes" lane="152818#5_1" startPos="6.649999999999999" endPos="21.65" lines="3:Fontvieille" friendlyPos="true"/> <!-- 131136 -->
    <busStop id="131137" name="Jardin Exotique" lane="152900_1" startPos="5.0" endPos="20.0" lines="2:Jardin 2:Monaco" friendlyPos="true"/> <!-- 131137 -->
    <busStop id="131138" name="Rotondes" lane="152818#3_1" startPos="90.54" endPos="105.54" lines="2:Monaco" friendlyPos="true"/> <!-- 131138 -->
    <busStop id="131139" name="Saint-Joseph" lane="152551_1" startPos="106.99864378779921" endPos="121.99864378779922" lines="100:Nice" friendlyPos="true"/> <!-- 131139 -->
    <busStop id="131140" name="Pont de l'Union" lane="153661_1" startPos="49.09420128977431" endPos="64.09420128977432" lines="M5:Ramingao" friendlyPos="true"/> <!-- 131140 -->
    <busStop id="131141" name="Bien Situee" lane="-153017#0_1" startPos="1260.1049722759772" endPos="1275.1049722759772" lines="100:Menton" friendlyPos="true"/> <!-- 131141 -->
    <busStop id="131142" name="1er Hameau" lane="-153017#0_1" startPos="607.816377126805" endPos="622.816377126805" lines="100:Menton" friendlyPos="true"/> <!-- 131142 -->
    <busStop id="131143" name="1er Hameau" lane="-152997_1" startPos="1283.8146426438466" endPos="1298.8146426438466" lines="100:Nice" friendlyPos="true"/> <!-- 131143 -->
    <busStop id="131144" name="2e Hameau" lane="-152997_1" startPos="1639.1950540734008" endPos="1654.1950540734008" lines="100:Nice" friendlyPos="true"/> <!-- 131144 -->
    <busStop id="131145" name="Torraca" lane="153497_1" startPos="291.1315178469216" endPos="306.1315178469216" lines="100:Menton" friendlyPos="true"/> <!-- 131145 -->
    <busStop id="131146" name="Torraca" lane="-153497_1" startPos="273.83296289060183" endPos="288.8329628906018" lines="100:Nice" friendlyPos="true"/> <!-- 131146 -->
    <busStop id="131147" name="2e Hameau" lane="-153017#0_1" startPos="269.23521042125276" endPos="284.23521042125276" lines="100:Menton 21:Menton" friendlyPos="true"/> <!-- 131147 -->
    <busStop id="131148" name="Riva Bella" lane="-153017#0_1" startPos="67.38861171880055" endPos="82.38861171880055" lines="100:Menton" friendlyPos="true"/> <!-- 131148 -->
    <busStop id="131149" name="Massolin" lane="-153497_1" startPos="430.6593728436393" endPos="445.65937284363923" lines="100:Nice" friendlyPos="true"/> <!-- 131149 -->
    <busStop id="131150" name="Massolin" lane="153362#2_1" startPos="100.3961813768618" endPos="115.3961813768618" lines="100:Menton" friendlyPos="true"/> <!-- 131150 -->
    <busStop id="131151" name="Massolin" lane="-152962_1" startPos="114.28178861388287" endPos="129.28178861388287" lines="M5:PontUnion" friendlyPos="true"/> <!-- 131151 -->
    <busStop id="131152" name="1er Escalier" lane="-153362#1_1" startPos="17.84901378752203" endPos="32.849013787522026" lines="M5:Ramingao 100:Nice" friendlyPos="true"/> <!-- 131152 -->
    <busStop id="131153" name="1er Escalier" lane="153362#1_1" startPos="477.96769491858026" endPos="492.9676949185804" lines="M5:PontUnion 100:Menton" friendlyPos="true"/> <!-- 131153 -->
    <busStop id="131154" name="2e Escalier" lane="-153362#1_1" startPos="310.72525326236524" endPos="325.7252532623653" lines="M5:Ramingao 100:Nice" friendlyPos="true"/> <!-- 131154 -->
    <busStop id="131155" name="2e Escalier" lane="153362#1_1" startPos="216.95762159107124" endPos="231.95762159107124" lines="M5:PontUnion 100:Menton" friendlyPos="true"/> <!-- 131155 -->
    <busStop id="131156" name="Datcha" lane="153362#0_1" startPos="82.23518283045517" endPos="97.23518283045517" lines="100:Menton" friendlyPos="true"/> <!-- 131156 -->
    <busStop id="131157" name="Les 4 Chemins" lane="-152998#0_1" startPos="359.97803250506865" endPos="374.97803250506865" lines="100:Nice" friendlyPos="true"/> <!-- 131157 -->
    <busStop id="131158" name="Ramingao" lane="152998#0_1" startPos="313.0197656559889" endPos="328.0197656559889" lines="M5:PontUnion" friendlyPos="true"/> <!-- 131158 -->
    <busStop id="131159" name="Ramingao" lane="-152998#0_1" startPos="8.82198808309112" endPos="23.82198808309112" lines="M5:Ramingao 100:Nice" friendlyPos="true"/> <!-- 131159 -->
    <busStop id="131160" name="Les 4 Chemins" lane="153328#4_1" startPos="238.5023960475931" endPos="253.5023960475931" lines="100:Menton" friendlyPos="true"/> <!-- 131160 -->
    <busStop id="131161" name="Deux Tunnels" lane="153482#1_1" startPos="495.40776155601617" endPos="510.40776155601617" lines="100:Menton" friendlyPos="true"/> <!-- 131161 -->
    <busStop id="131162" name="Chapelle de Saint-Laurent" lane="152907_1" startPos="2520.394309820882" endPos="2535.394309820882" lines="M1:Eze" friendlyPos="true"/> <!-- 131162 -->
    <busStop id="131163" name="Saint-Roman" lane="152586#0_1" startPos="55.610930053018905" endPos="70.6109300530189" lines="4:Fontvieille 100:Nice" friendlyPos="true"/> <!-- 131163 -->
    <busStop id="131164" name="La Turbie Marie" lane="-152749_1" startPos="3.289999999999999" endPos="18.29" lines="M2:France M3:Turbie" friendlyPos="true"/> <!-- 131164 -->
    <busStop id="131165" name="131165" lane="-153484#8_1" startPos="82.8926267242922" endPos="97.8926267242922" lines="" friendlyPos="true"/> <!-- 131165 -->
    <busStop id="131166" name="Saint-Roman (Bus 1)" lane="152352_1" startPos="23.577089989932166" endPos="38.57708998993217" lines="1:SaintRoman 1:Monaco" friendlyPos="true"/> <!-- 131166 -->
    <busStop id="131167" name="131167" lane="-153465_1" startPos="21.404384690587825" endPos="36.40438469058783" lines="M1:Eze M2:Turbie" friendlyPos="true"/> <!-- 131167 -->
    <busStop id="131168" name="131168" lane="153465_1" startPos="74.96862739158762" endPos="89.9686273915876" lines="M1:France M2:France" friendlyPos="true"/> <!-- 131168 -->
    <busStop id="131169" name="Cap Estel" lane="-152931_1" startPos="755.6470604406618" endPos="770.6470604406618" lines="100:Nice" friendlyPos="true"/> <!-- 131169 -->
    <busStop id="131170" name="Cap Estel" lane="152931_1" startPos="74.7576451116938" endPos="89.7576451116938" lines="100:Menton" friendlyPos="true"/> <!-- 131170 -->
    <busStop id="131171" name="Parking Saint-Laurent d'Eze" lane="-152931_1" startPos="307.0287253920442" endPos="322.0287253920442" lines="M1:Eze 100:Nice" friendlyPos="true"/> <!-- 131171 -->
    <busStop id="131172" name="Parking Saint-Laurent d'Eze" lane="152931_1" startPos="444.7795562759498" endPos="459.77955627594986" lines="M1:France 100:Menton" friendlyPos="true"/> <!-- 131172 -->
    <busStop id="131173" name="Gianton" lane="153482#0_1" startPos="56.68589552527662" endPos="71.68589552527662" lines="100:Menton" friendlyPos="true"/> <!-- 131173 -->
    <busStop id="131174" name="Gianton" lane="-153482#1_1" startPos="625.1868215079454" endPos="640.1868215079453" lines="100:Nice" friendlyPos="true"/> <!-- 131174 -->
    <busStop id="131175" name="Deux Tunnels" lane="-153482#1_1" startPos="121.94827771201292" endPos="136.94827771201292" lines="100:Nice" friendlyPos="true"/> <!-- 131175 -->
    <busStop id="131176" name="Edmond's Cap d'Ail" lane="-153481#24_1" startPos="6.281121144522299" endPos="21.2811211445223" lines="100:Menton" friendlyPos="true"/> <!-- 131176 -->
    <busStop id="131177" name="Guillaume Apollinaire" lane="-153481#20_1" startPos="117.05823802276967" endPos="132.05823802276967" lines="M4:HotelVille 100:Menton" friendlyPos="true"/> <!-- 131177 -->
    <busStop id="131178" name="La Source" lane="153481#18_1" startPos="10.071778509871777" endPos="25.071778509871777" lines="M4:Train 100:Nice" friendlyPos="true"/> <!-- 131178 -->
    <busStop id="131179" name="L'Eglise" lane="-153481#16_1" startPos="229.81" endPos="244.81" lines="M4:HotelVille 100:Menton" friendlyPos="true"/> <!-- 131179 -->
    <busStop id="131180" name="L'Eglise" lane="153481#13_1" startPos="267.93" endPos="282.93" lines="M4:Train 100:Nice" friendlyPos="true"/> <!-- 131180 -->
    <busStop id="131181" name="Hotel de Ville" lane="-153481#13_1" startPos="225.3413937924876" endPos="240.3413937924876" lines="M4:HotelVille 100:Menton" friendlyPos="true"/> <!-- 131181 -->
    <busStop id="131182" name="Hotel de Ville" lane="153481#13_1" startPos="104.83331914665807" endPos="119.83331914665807" lines="100:Nice" friendlyPos="true"/> <!-- 131182 -->
    <busStop id="131183" name="Le Loup Blanc" lane="153481#10_1" startPos="40.86394561490199" endPos="55.86394561490199" lines="100:Nice" friendlyPos="true"/> <!-- 131183 -->
    <busStop id="131184" name="Le Loup Blanc" lane="-153481#8_1" startPos="23.288065869749" endPos="38.288065869749005" lines="100:Menton" friendlyPos="true"/> <!-- 131184 -->
    <busStop id="131185" name="Liberte" lane="-153481#6_1" startPos="27.11303169480749" endPos="42.11303169480748" lines="100:Menton" friendlyPos="true"/> <!-- 131185 -->
    <busStop id="131186" name="Liberte" lane="153481#2_1" startPos="13.96" endPos="28.96" lines="100:Nice" friendlyPos="true"/> <!-- 131186 -->
    <busStop id="131187" name="Cimetiere" lane="152542#0_1" startPos="142.44856122531579" endPos="157.4485612253158" lines="100:Menton" friendlyPos="true"/> <!-- 131187 -->
    <busStop id="131188" name="Cimetiere" lane="152422_1" startPos="73.02610140022848" endPos="88.02610140022848" lines="4:SaintRoman" friendlyPos="true"/> <!-- 131188 -->
    <busStop id="131189" name="Saint-Roman" lane="153370#0_1" startPos="80.31521955258083" endPos="95.31521955258083" lines="100:Menton" friendlyPos="true"/> <!-- 131189 -->
    <busStop id="131190" name="La Tranchee" lane="153370#4_1" startPos="223.34107008809272" endPos="238.34107008809272" lines="100:Menton" friendlyPos="true"/> <!-- 131190 -->
    <busStop id="131191" name="La Tranchee" lane="-153328#1_1" startPos="123.45457650791722" endPos="138.45457650791724" lines="100:Nice" friendlyPos="true"/> <!-- 131191 -->
    <busStop id="131192" name="La Boucherie" lane="-153328#2_1" startPos="74.21598602165355" endPos="89.21598602165355" lines="100:Nice" friendlyPos="true"/> <!-- 131192 -->