<tazs>
    <taz edges="-526#0 715#1 679 705#1 678 520#1 -869#2 -358#1 -895#0 -521#2 -749#1 893#2 797 1321#5 1495#1 806#0 -1356#2 692 1356#4 676 693#3 735#1 527 693#1 -575#0 -581#5 857 -786 -612#0 496 1339#3 -895#4 -820#0 494#3 292#0 -624#0 863#1 102 572 900#1 -1423#7 -601 566#1 -872#1 528 -1502#1 -790#2 1606#1 -316#1 -365#2 721 1315#11 219 -693#3 729#2 755#4 -908 1354#16 1354#0 1356#0 499#1 -389 -923 354#0 -1386#4 499#3 625#1 95#1 755#0 629#0 -619#1 369#1 352#0 -183 -751#0 276 521#12 733#9 -278#1 863#5 565#1 -528 -287 782 204#4 240#1 -755#3 -369#0 785 565#3 -521#11 -810 389 699 584#2 -576 701#0 870 624#3 595#0 1503 728 -520#1 -821#1 317#1 1354#13 587#4 180#1 689 587#0 98 -634 631 -693#4 571#4 -1500 -564#0 407 724#2 -861#1 714#1 -684#0 -1502#0 718 -1386#2 -922#6 627#2 922#7 -1607 -564#2 -591 516 -619#5 735#3 860#3 751#2 -619#4 502#1 502#2 -736#0 -1495#1 -1606#1 -755#1 -585#0 808 802 350#1 787 -584#11 786 -353#0 -568 530#2 566#2 751#3 751#1 -606#0 -893#3 -681 1320 353#0 -922#2 -733#6 8 359#2 -590#1 603#1 884#1 -290#4 585#2 -696 939#0 373 733#13 594#3 680 -733#10 351 624#2 -600#2 -521#5 -749#2 359#0 93 -278#3 807#2 794#4 237#2 361#1 -491#0 -375#0 -736#3 737#3 241#0 -603#0 443#0 1354#11 -790#3 632#0 -860#4 -626#1 629#2 -564#1 365#0 735#5 788 792 584#5 -394#4 71#0 571#1 -863#5 1354#8 -581#3 602 251 863#4 521#11 600#1 -362 6#0 -864 176 -783 -869#1 236 812#1 -1356#3 705#2 289#3 -373 1347#2 -1509#4 584#10 -716#0 709#0 -824#0 -584#10 860#1 585#0 -715#0 685#2 733#8 -407 -801 564#0 -730 563#1 -820#2 1263#2 869#2 -893#0 178#1 -731#3 -725 778 1337#0 -797 -742#4 -1263#3 520#4 1263#1 359#4 729#0 -1354#12 595#2 -532 626#1 525#0 -817 358#1 584#1 408 -173 869#0 820#2 -1379 1354#3 751#0 440#3 803#2 -1321#1 736#3 -731#1 -177 -812#0 716#0 -595#0 867#0 -347 -1321#5 1495#3 -686 700 702#0 -416#0 -807#1 777 1269#1 287 746#1 908 884#6 -194 -685#0 1346#0 562 -1321#2 -1340#0 235 -701#0 -278#0 710#0 -815#1 755#2 250#1 -521#1 -522#0 -1359 574#1 -789 -523 -1495#2 633 -1354#6 707#4 869#1 -289#4 -742#1 580 -860#3 801 -790#1 -611#1 -579 817 922#3 -416#1 755#5 -233#1 -893#4 -584#8 -788 -505 634 -1354#8 362 -292#0 581#2 570 1346#2 -169 810 357#1 597 584#7 750#0 619#1 865#3 724#0 179 -289#2 -525#1 -865#3 278#3 375#1 1354#10 204#1 619#5 250#2 4#1 684#0 350#4 361#0 -912#2 394#5 632#2 720 278#2 455 -781 749#1 -619#0 294#3 1354#7 933#0 1269#4 -289#1 677 -314 -687 907#3 -577#0 277 233#1 587#1 357#2 1380 1388 294#0 -351 353#1 795#0 733#7 -1315#11 -1510 317#0 -793#0 -584#2 271 290#2 1506 -731#2 744#0 -685#3 731#1 281 1500 931 -702#1 270 924 -1516#0 347 -733#3 197 617 517 -603#3 736#2 -821#0 606#2 394#4 -98 577#0 -796 -893#2 -383 348 394#1 6#2 793#0 -353#2 -731#4 178#0 1346#1 358#0 -755#4 -499#0 890#1 1337#1 619#2 823#1 290#3 -365#0 922#4 -1606#0 567 816#2 922#8 629#3 352#1 632#3 3 790#1 793#1 1346#3 -585#2 575#0 -494#3 900#2 595#3 -1498 -1355#1 704 883#4 683 -1354#17 1494#0 922#5 779 530#1 -895#5 703#1 368#2 -822#0 -233#0 1509#1 733#4 755#8 -1354#5 -733#11 693#2 -394#2 -751#6 1339#1 884#5 889#1 -710#1 1381#2 -755#0 694 -1354#1 590#0 -496 -812#1 -865#1 -176 -1354#10 -153 564#5 -806#1 -582 871 790#6 -614 350#2 315 889#0 439#7 -569#0 620#0 -1269#1 620#1 280#1 -615 -804 815#0 495#1 -570 865#0 -193 -893#5 585#1 -408 -564#4 521#1 791 -521#6 755#1 -747 -784 1356#2 584#8 803#0 884#7 -507#1 -522#1 -1342 731#4 521#0 820#0 820#1 737#0 -273#0 -349 -594#1 -594#2 -1383#2 -1315#10 571#0 -295 740#0 -274#1 -581#4 -731#5 -1315#12 -750#0 368#1 -805 566#0 198#3 611#0 630 -1354#13 -1354#4 359#1 922#6 627#0 873 582 923 884#4 603#3 -521#8 175 587#3 821#0 1354#12 -292#1 913 -1354#15 -3 -803#1 1502#1 -710#0 565#4 -912#1 -807#0 898 526#1 -353#1 -1269#4 -865#0 529 1321#6 709#1 355 -174 198#0 719 -290#1 936#7 581#3 -746#0 -922#7 707#1 -583 -733#8 592#1 -717 601 576 858 -702#0 -713 -922#3 -612#1 359#3 -1502#2 1423#7 -863#2 314 383 353#2 1339#2 789 -1321#4 -890#0 -4#0 -1501 -521#4 -782 564#4 439#4 893#1 611#1 -289#3 -574#2 -566#2 -893#1 -312 -823#1 316#1 525#1 -890#1 -733#5 -584#6 494#1 -574#1 -624#3 1499#0 -278#2 883#0 -586#1 -863#1 892 193 -733#12 -520#2 1607 -4#1 -502#2 -863#0 -526#1 -1354#7 -1321#3 -584#3 747 783 693#4 790#5 729#1 -1509#3 507#1 794#0 375#0 -744#0 -594#3 495#0 893#3 884#8 696 717 -1263#0 -684#1 790#3 -611#0 -802 569#1 289#4 809 -1269#3 -912#0 623#2 793#3 865#5 895#5 -581#0 -872#0 6#4 -577#1 891 153 742#4 -589 -495#1 688 439#2 590#2 -564#5 594#1 -501 6#5 -1263#2 170 -595#5 862#4 416#0 -251 294#1 -235 1497 6#3 584#12 589 -750#2 565#2 394#3 1501 -375#1 865#2 -564#6 -723 -933#0 -860#1 578 686 872#1 -809 623#0 -394#1 274#0 907#1 1359 584#9 -600#1 394#0 693#0 864 521#6 -620#1 250#0 604 1495#0 804 1321#4 784 581#6 1605 524 354#2 71#1 -861#0 -705#2 -520#0 595#4 1421 -619#2 742#3 -679 -733#1 -521#12 -1354#14 -1354#3 798 -693#1 -815#0 -693#0 174 -606#2 -722 1341 861#2 -581#1 571#2 1356#3 594#4 1 803#1 733#11 290#1 -822#1 240#3 -584#1 360 -352#1 907#4 -352#0 -751#3 -617 1509#2 440#6 -1435#0 684#1 -860#0 -724#1 -289#0 280#0 1496 -366 -8 292#1 735#0 703#2 6#7 806#1 -616 899 531 -700 -865#2 -1494#1 -603#1 -808 272 790#0 316#0 6#1 574#2 860#2 722 815#1 359#5 794#3 1386#5 -701#1 204#2 -698 -521#3 716#1 -1495#3 710#1 -606#1 1354#4 -733#7 188 868#0 594#0 -368#2 -368#1 -595#3 600#2 564#1 -1354#9 -693#2 732 860#4 -494#0 893#4 -208#0 795#2 -793#2 1594 233#0 394#2 -816#1 790#2 1498 592#0 416#1 595#1 494#2 624#0 893#5 1354#5 727 248 -584#9 354#1 735#2 884#2 1505 290#4 707#0 742#1 -736#1 596 -936#7 1271 -733#4 701#1 733#10 -755#8 794#5 1345#1 371 -742#0 1499#3 565#0 -1508 862#1 584#11 -315 862#3 -708 521#2 867#1 731#3 -1509#0 208#3 -499#1 -706 -1494#0 -715#1 -566#0 -863#4 1381#0 -861#2 -394#3 586#1 -394#0 241#1 -1418#0 -731#0 -1320 -1265#0 -274#0 612#1 -1354#16 1499#1 -394#5 289#1 289#2 164 -704 1321#0 862#0 -780 505 -1345#0 795#1 -592#0 -288#1 -791 748 -695 1269#3 1516#0 707#3 -269 -182 755#7 -195 724#1 1339#0 237#1 745 -755#7 -515 -807#2 1316#2 269 -625#0 821#1 619#3 -742#3 -1506 -521#0 -564#3 731#2 494#0 -720 755#3 -776 564#3 743#0 1337#2 -590#2 -531 -1271 822#1 440#0 -820#1 274#1 731#5 794#1 1499#2 -626#0 -691 237#0 733#12 240#2 742#0 -1354#0 -530#0 -800 711 -360 -595#1 154 743#1 275 712 -358#0 -595#4 515 751#5 -1354#11 -793#1 -685#2 520#2 523 279 194 900#4 1502#0 614 575#1 -595#2 1269#2 -1509#2 726 -778 715#0 939#1 693#5 497#2 1385 -1355#0 -514 -241#0 -88 1386#3 623#1 736#1 1355#0 366 -724#2 -705#0 793#2 615 890#0 606#1 -594#0 621 -1341 -689 751#4 738 313#0 1354#9 -922#8 356 735#4 -751#1 313#1 824#0 -882 -755#5 -1509#1 521#4 -746#1 1494#1 521#10 681 -755#2 1347#0 180#0 -683 1265#1 -455 -873 -1381#0 794#2 -869#0 -857 695 439#9 -803#0 1494#2 1342 755#6 283 -272 -290#2 860#0 922#2 914 590#1 254 -705#1 -803#2 206 -871 -290#3 1495#2 707#2 -1 -1381#2 -785 -750#1 -580 -751#2 494#4 1596 564#6 733#5 895#4 -790#5 250#3 1354#14 -925 526#0 1595 1321#2 739 1355#1 822#0 907#0 -707#3 1321#1 685#1 -219 -1356#4 -922#4 -729#2 619#4 687 -1497 169 859 1502#2 -1356#0 -740#0 781 568 -368#0 -707#2 581#0 290#0 1354#15 312 -499#2 698 733#2 713 -922#5 -592#1 -736#2 288#1 521#9 1510 -751#4 736#0 -707#1 884#11 1321#3 183 900#3 -530#1 737#2 -620#0 368#0 790#4 -755#6 -1321#0 1354#6 725 -792 -936#6 -270 499#2 -188 -1265#1 744#1 87 -733#9 733#3 893#0 357#0 -749#0 565#5 571#3 -604 584#3 862#2 -790#0 -494#1 488 -707#4 1265#0 -599 -859 1263#0 883#3 697 521#5 -688 868#1 -175 -95#0 -726 584#4 616 -502#1 587#2 7 -1605 1337#3 865#4 780 872#0 365#2 -728 -368#3 1347#1 -816#0 733#0 563#2 -733#13 632#1 -276 581#4 588 296 861#1 204#3 581#5 -716#1 584#6 1263#3 583 -584#4 577#1 -494#4 165 -692 -678 532 619#0 564#2 -594#4 866 273#1 776 -624#2 1315#10 -502#0 805 884#3 -584#5 -525#0 -694 -495#0 -718 -290#0 606#0 295 -709#1 -631 -628 -707#0 240#4 569#0 -1345#1 -71#0 907#2 -751#5 -1269#2 -575#1 -630 1337#4 1354#1 1435#0 237#3 447 90 173 865#1 733#1 -860#2 -790#4 -798 203 -1355#2 807#1 861#0 439#0 521#3 -740#2 -729#0 -733#2 821#2 -733#0 -603#2 628 1509#4 -273#1 883#2 595#5 -1502#3 599 -1505 586#0 -619#3 368#3 868#2 925 -865#4 -288#2 -1263#1 1379 -699 594#2 912#0 912#1 522#1 -316#0 278#0 1340#1 1340#0 440#2 685#0 883#1 -719 750#1 -192 -712 591 -1386#3 -714#1 816#0 863#2 -586#0 -787 -248 746#0 -806#0 288#2 -729#1 912#2 -709#0 737#4 -889#0 -494#2 273#0 439#6 -581#6 625#0 530#0 357#3 198#2 936#6 443#1 198#1 -283 1386#4 -1495#0 730 -584#7 -1494#2 -602 -527 581#1 -578 4#0 497#1 737#1 521#8 622 1355#2 -685#1 1606#0 -693#5 751#6 702#1 350#3 691 603#2 -1340#1 182 733#6 750#2 -566#1 -744#1 278#1 685#3 740#2 -581#2 1354#17 705#0 -724#0 294#2 -590#0 1502#3 -779 6#6 -521#9 749#2 563#0 -585#1 440#8 514 -521#10 796 1509#3 289#0" id="1"/>
    <taz edges="456 -1286 916#1 -916#0 -1282#0 -1287 -448 451" id="20"/>
    <taz edges="356 1313#3 473#0 1313#1 -493#4 1257#3 919#0 -946#2 -468#2 1293 -1257#0 -1319#2 334 1428#1 -1303#0 865#5 897#0 856#1 856#2 -1312#0 1529#0 335#2 1301#1 1313#2 -495#1 1300#1 1304#1 1423#0 468#1 472#1 -501 -469 490#1 1312#4 1257#0 -1288#1 1289#0 -1310#0 472#0 -190#1 1309#3 -1298#2 1322#2 948 -1283#1 -1428#4 476#0 489#2 121 -1296#1 496 -1313#4 158 -1299#1 -1308#0 453 -1305#0 -223 1283#1 -985 -1291 -1290#3 -460 1613 944 1290#0 -1423#7 -1435#3 1303#1 942 1304#2 -941 -1529#0 487 -491#1 1528 -1306#0 -1304#2 -1290#4 1428#0 457 1296#4 1302#2 -1290#1 -489#2 190#1 223 1492 -1306#3 856#0 231#0 354#0 376 1311#1 499#3 1519 -472#0 -493#0 -897#2 1308#0 -881 1310#0 -1257#4 415#2 1295#2 -1311#0 -1295#1 -1258 -1423#4 391 225 894#1 989 1306#2 -1430 1305#0 1299#1 -367#0 -1300#0 -1437 -1531 1312#2 1306#0 157 -474 1257#2 1322#0 1531 1299#0 -1260#3 -1316#1 -470 -1307#0 1312#3 -1257#2 1295#1 467#1 -1313#1 -459 -499#2 -949 1290#1 -1319#1 -452 -1297 -1309#1 234 489#4 -1306#1 1307#1 946#0 1304#0 -335#3 1504 222 -1296#0 1324#4 -1282#0 333 -466 -1257#3 -1519 1423#3 -1296#2 478 921 -1322#5 415#3 945 -489#0 -1492 -916#0 -1309#3 -1307#1 -1435#0 1296#3 1316#1 1423#4 -947 156 -894#1 166 -335#1 499#2 -950 1493 1283#3 1288#2 87 -1302#0 -1313#3 -920#0 458 -490#0 1309#2 1309#0 897#2 -988#1 -83 -1423#2 856#3 -1527 488 -376 -224 -190#0 489#3 125 231#1 460 897#1 950 -1304#0 -457 415#1 1259#1 471 476#1 -1290#2 -1312#1 -940#0 1423#2 1423#6 468#4 493#0 -493#5 -487 1306#4 1283#0 1316#0 1435#3 1317 1305#1 469 1260#3 468#3 -494#0 14 -1290#0 -1308#1 468#2 -496 -493#1 1260#1 1313#4 -919#0 468#6 920#1 1292 1308#1 947 1307#0 946#2 493#5 493#4 1301#0 1290#3 93 1322#3 -946#1 354#1 -1259#0 -1306#2 -491#0 985 -495#0 1309#4 1310#1 -1309#4 -1312#3 1322#5 -1306#4 220 -1428#1 474 -333 -222 495#1 1527 -1300#1 425 1428#4 -1312#4 -335#0 431 946#1 1257#1 -1286 490#0 1322#4 236 -945 -1296#3 1289#1 1435#0 237#3 -1302#1 489#0 1298#2 90 1290#2 -1298#1 335#3 1294 1259#2 432 1296#1 -489#3 -946#0 1295#0 1260#4 940#1 -480 493#2 -1260#4 -1423#6 -1289#1 -1283#2 -1428#2 1302#0 -1428#3 -453 -989 452 -221 -897#0 -1529#2 -225 159 426 -1313#0 -468#5 -166 -395 462 -475 1428#3 1428#2 1300#0 -1260#2 -1316#0 -1423#5 -1259#1 -918 -468#4 -1298#0 533#1 1322#1 -1295#2 -1504 335#1 -391 493#3 -1304#1 920#0 456 -1305#1 -1309#0 1316#2 -948 -1260#0 -448 -467#1 1290#4 -489#1 1529#2 491#1 480 479 -493#2 -462 -227 451 1529#1 -461 494#0 -465 -897#1 -1322#3 -921 -489#4 -1295#0 -473#0 1319#1 190#0 367#1 493#1 -1304#3 1289#2 1309#1 -1283#3 -1301#0 -468#3 1584#1 919#1 1437 -1289#2 1423#7 -1296#4 -473#1 1423#5 -1283#0 1258 -1260#1 -1257#1 -1423#0 -468#6 -1428#0 1296#0 1007 -1007 -335#2 -471 -478 -943 466 -1315#0 -1322#1 155 -472#1 1423#1 415#4 1306#3 464 160 473#1 -476#0 497#1 -942 1302#1 -468#1 470 224 1303#0 -1287 894#0 -367#1 -1289#0 1283#2 -1529#1 459 915 227 395 -944 -1288#0 -1423#1 -493#3 461 -1322#4 -479 -467#0 1296#2 1288#1 497#2 1304#3 -1299#0 949 -334 1260#2 -1312#2 -88 424 -915 -468#0 1298#1 -1302#2 -1319#0 -226 489#1 -1322#0 -894#0 -1322#2 419#1 468#5 -1259#2 1319#2 -1309#2 232#1 943 -1313#2 367#0 1257#4 1312#1 1306#1 495#0 226 916#1 422 335#0 -1423#3 -1528" id="14"/>
    <taz edges="156 -1277 155 420 -916#0 1277 -1282#0 1280 -1283#0 1283#0 1282#1 421 1288#2 -1430" id="19"/>
    <taz edges="-1277 -1278 -1436 1277 1436 1278" id="18"/>
    <taz edges="1358 1384#0 -526#0 -1263#0 -611#0 1346#2 569#1 598 1348 597 -910 -1345#6 521#4 1391#9 619#1 1315#13 865#3 520#1 865#5 895#5 897#0 -895#0 -1384#5 521#10 968 1325#5 -525#1 -865#3 -895#3 -1357 1263#4 1315#4 -521#2 1347#0 335#2 643#1 -749#1 1354#10 -1391#2 1269#7 1361#0 1391#0 -996 -1315#8 -536 1321#5 -255 -1382#0 -564#5 610 901 1265#1 -501 -1328#8 -1263#2 -1356#2 -537 1382#5 -1381#0 1356#4 416#0 17 -396 -1364#2 -1310#0 -258#0 -343 -251 -1351#3 -1345#4 -1348 -648 584#12 565#2 394#3 551 1342 994#1 -1362#2 865#2 860#0 -564#6 476#0 539 -1384#1 1351#3 -612#0 1328#9 -959 259 350#4 444#1 1339#3 -503#2 -895#4 -922#0 -1361#4 -860#1 -756 494#3 394#5 720 537 -624#0 1426 102 242#0 1382#4 -1435#3 635#1 -1381#2 1328#0 638#1 -601 749#1 1353#1 -1502#1 -619#0 1328#8 1354#7 494#4 1315#9 -1353#3 -1382#4 -336 1606#1 -951#3 -968 564#6 -394#1 -508 -1325#0 895#4 953 969#1 1315#11 1328#2 -1389 1354#14 -925 -1391#6 1359 -600#1 -1364#0 1361#6 526#0 677 864 1384#4 1354#16 521#6 1354#0 239#0 -1360 1321#2 1361#2 604 1356#0 -1382#3 -951#1 1382#1 895#2 1355#1 1598 -923 -607 1351#5 -1351#8 -1361#2 1321#4 -1315#4 -1516#1 1315#12 1380 1388 1605 -1345#7 257 -971#0 258#1 -351 625#1 -1362#0 651 95#1 1321#1 1361#7 1310#0 629#0 733#7 -535 1345#7 -854 1391#5 -1311#0 -1315#11 1384#3 -619#1 1361#5 -1387#1 -1353#4 -647#1 352#0 369#1 -1328#9 -1356#4 -520#0 1506 970 -951#0 -731#2 -1391#1 -619#2 -922#4 731#1 1351#9 989 -1324#0 521#12 931 1391#11 -1324#3 649 733#9 986 966 16 1364#4 924 -1516#0 1384#1 -521#12 -1384#3 565#1 1502#2 -1356#0 -1354#14 1362#4 617 -1354#3 962#3 -1325#5 1324#2 1383#2 1514 988#1 -1315#2 -901 -603#3 -368#0 1325#1 1265#8 -598 -1265#6 -1328#3 240#1 -638#0 1333 951#1 952 -1352 -15 -1323 1341 -962#2 565#3 -951#2 -521#11 378 1352 1356#3 1354#15 1434#8 -1315#5 394#4 -1391#3 -1381#1 1326#1 -1265#8 -647#0 -1327 1351#1 969#0 647#0 -952 -922#5 -1429 394#1 971#0 521#9 -503#3 1268 951#2 -1511 -978 -520#1 1600 240#3 -731#4 1324#4 1321#3 -1434#7 1346#1 -1324#2 1265#10 1354#13 536 -530#1 -1328#0 368#0 -1361#6 -1324#1 962#0 1328#1 478 -1322#5 -352#1 1350 -1321#0 -1435#1 1337#1 619#2 -1391#10 967 351 512 -352#0 1265#7 1354#6 -617 -503#1 -1435#0 643#0 922#4 -1265#11 1361#4 -1606#0 -860#0 855#2 635#2 -335#1 922#8 -546 1270 352#1 -1265#1 -962#1 -564#0 1261#11 1346#3 -1328#6 959 1391#10 -1345#3 -643#0 -1391#0 -494#3 255 703#2 1384#2 1309#0 -733#9 -1502#0 -988#1 -616 1364#0 -1355#1 -1265#9 -1427#0 -642 1345#3 -749#0 -865#2 -603#1 -613 1265#6 503#0 565#5 1383#0 987#1 -604 -922#6 538 627#2 -643#1 -962#0 503#4 1357 -1344 -1353#5 922#7 1356#5 860#2 -1354#17 -886 545 618 646 -1607 510 922#5 1345#6 1265#0 -564#2 -599 125 1263#0 -1353#0 511 -1269#7 344 521#5 1315#7 -1343 258#0 860#3 -1363 -895#5 530#1 703#1 922#2 -521#3 -1356#6 368#2 1324#1 868#1 -95#0 1351#8 756 476#1 -384 -1322#7 -239#1 1364#2 -538 -539 616 -649 -1606#1 1511 1354#4 -1605 -733#7 -635#2 346 1337#3 -1263#5 428#2 -610 865#4 -368#2 -1354#5 978 -368#1 1265#2 1391#2 1382#6 -543#1 605 350#1 1391#1 -1354#9 -584#11 564#1 1353#3 509 600#2 -242#0 -733#11 -368#3 -609 -1325#4 -394#2 1347#1 256 -1328#7 -1391#5 530#2 732 1339#1 1435#3 889#1 1320 638#2 508 860#4 -643#3 563#2 -643#2 1362#2 -635#1 -1362#1 -895#2 -1361#0 -922#2 1363 -1386#0 1381#2 -385 1328#7 -1325#1 603#1 951#3 -1351#9 -1354#1 -1361#7 -967 1315#14 638#0 886 1434#9 987#2 394#2 -962#3 -551 239#2 -346 939#0 -994#0 1263#3 -1383#3 416#1 -865#1 -239#2 -1315#7 428#1 624#0 -1351#0 -1328#1 -1315#13 -1391#8 -733#10 -1364#1 -494#4 -1325#2 -1354#10 -600#2 -1384#4 1361#3 1354#5 1323 -521#5 -1328#5 532 564#2 619#0 134#1 895#1 1389 647#2 -544#0 564#5 -624#2 1315#10 1315#1 1427#0 -1384#0 1505 -614 965 733#10 -502#0 350#2 -525#0 895#3 889#0 -1264#1 -1391#9 -543#0 -569#0 596 -1351#2 1315#5 1351#2 1325#2 1265#5 241#0 962#2 -639 608 1322#5 -603#0 -615 -628 -16 -1315#3 1351#4 1354#11 503#5 -647#2 -605 240#4 -1265#5 -1426 -637 -860#4 1265#4 -1345#1 -1382#5 -626#1 569#0 -564#1 -544#1 629#2 -564#4 1345#4 521#1 1322#7 1351#6 -394#4 503#2 -1333 -521#6 988#0 -335#0 1354#8 251 -1382#2 -1353#2 521#11 600#1 -969#0 -970 444#2 -1391#11 1356#2 -1600 -864 854 1353#5 -444#2 -630 -345 1429 -507#1 1345#1 565#0 -1342 1337#4 549 1328#3 584#11 -1356#3 1354#1 1435#0 -1264#0 -510 1328#6 -708 521#0 -1325#3 521#2 867#1 -638#1 447 731#3 -953 865#1 1347#2 -860#2 1383#1 987#3 855#0 544#1 -349 -608 -969#1 1315#2 -988#0 -1383#2 1381#1 427 -533#0 -1355#2 -895#1 1381#0 860#1 -1315#10 -394#3 521#3 -1270 241#1 -731#0 1391#7 -239#0 396 962#1 -1356#5 733#8 -1427#1 -731#5 -1320 1263#6 -1315#12 643#2 -603#2 368#1 611#0 564#0 630 343 -1315#14 -548 -1265#0 -989 -1387#0 628 1362#0 563#1 -1354#13 -1364#3 -1354#4 500 -1362#4 -897#0 607 922#6 930#1 627#0 159 612#1 -1354#16 -1502#3 -1505 1263#2 1343 599 923 603#3 -394#5 -1391#4 368#3 -521#8 1364#1 624#2 868#2 1264#0 609 925 -865#4 1382#2 -1263#1 1321#0 1354#12 -731#3 1379 1265#9 1328#5 504 -1354#15 -1345#0 1502#1 505 647#1 748 -922#8 -987#3 1337#0 533#1 1516#0 1391#4 565#4 971#1 345 1516#1 335#1 922#0 -1263#3 -195 1340#1 -1351#4 1340#0 1351#7 -134#0 1339#0 1384#5 -1265#2 -1322#6 -515 520#4 685#0 -1309#0 -1265#7 -625#0 1263#1 -1361#1 1438 -712 -534 -865#0 855#3 1325#3 1362#3 -1354#12 -1506 1364#3 -521#0 1321#6 -532 -564#3 626#1 731#2 525#0 1261#12 865#0 996 -509 1387#1 -1434#8 -1362#3 543#0 -922#7 564#3 1337#2 1391#6 239#1 -733#8 961 1435#1 548 -1349 -238 -1265#4 -1379 1354#3 1391#3 535 601 1434#7 -1353#1 855#1 -922#3 -612#1 -966 1322#6 1383#3 1264#1 1515 534 -889#0 -1326#0 -1502#2 -1321#1 1315#8 -731#1 -1351#1 -1261#12 731#5 625#0 636 -626#0 -1350 530#0 1315#6 867#0 1351#0 1390 -1263#4 1339#2 -1358 -1315#1 -344 -1345#5 -256 1345#5 444#0 -1321#5 -511 240#2 -1328#2 -1361#5 -1321#4 -416#0 -1265#10 -1263#6 -1354#0 -335#2 1315#3 -478 -259 -1383#1 -1315#9 -503#4 -530#0 711 -1598 -521#4 1362#1 -1315#0 564#4 1349 611#1 1263#5 639 503#3 712 242#1 543#1 -545 160 -258#1 -685#0 515 -1354#11 -476#0 1346#0 -987#2 1387#0 520#2 521#8 523 525#1 -1390 -1321#2 -618 -1340#0 1353#4 -17 1502#0 552 614 1353#6 -1261#11 855#4 1324#3 1355#2 -378 1391#8 1265#11 -971#1 1344 -1361#3 1606#0 -444#1 -503#0 -507#0 -521#1 507#0 648 350#3 -1315#6 -987#0 -512 -1340#1 603#2 -1359 613 -523 1427#1 -1351#5 939#1 1353#2 -733#12 -520#2 1607 633 1385 -1354#6 -1355#0 133 -1345#8 1356#6 -860#3 -241#0 -526#1 546 -242#1 1382#3 -1351#7 -1354#7 385 994#0 -1351#6 -552 -1321#3 -1384#2 1325#4 1345#8 1355#0 -549 1361#1 643#3 -611#1 1354#17 -1383#0 -994#1 922#3 -1391#7 -416#1 1502#3 -1382#1 615 642 507#1 -444#0 -521#9 -965 -987#1 -1341 -199 987#0 563#0 -930#1 503#1 526#1 738 731#4 1325#6 -521#10 -1515 -505 335#0 1354#9 -1514 -1354#8" id="13"/>
    <taz edges="-832 1418#1 1418#18 -106#0 834#5 -292#0 -840 291#1 -1273 1599 -1418#21 -105#0 810 846 824#0 -297#3 -882 -1509#1 -824#1 1418#17 1418#26 -841#1 -1418#24 838#1 153 830#8 -1403#0 1395#2 824#3 216#4 -1395#0 1396#1 754#1 -1404#3 -1513 294#1 1513 216#10 -835#2 -937#0 843#0 1403#1 185 1415#0 914 -933#2 1413 -826#2 1418#3 -933#0 206 823#0 -820#0 824#8 292#0 -829 -1 900#1 937#1 834#6 842#1 1410#1 1418#19 1422#7 294#3 933#0 -216#0 836 -1405 907#1 -842#2 -1407#3 819 1534#1 1418#27 -908 907#3 -374#1 -909 1418#10 835#2 -1418#8 -216#9 -1392 1418#16 936#2 -824#4 -847 -937#1 1422#8 811#0 822#0 828 -1422#3 294#0 907#0 302 936#5 -1417#1 -1418#9 -1422#5 -216#1 1422#4 1418#23 -861#0 -1510 -183 -1404#5 -1410#1 -793#0 -1418#17 936#4 -1523#0 -841#0 -1418#11 -836 -1411#1 933#2 -1411#0 -1517 337 -293 824#4 1395#0 -1002 293 -1397#1 -815#0 1407#4 -1404#2 -1422#1 -821#0 1275 1517 861#2 1407#2 -216#8 303#1 -810 1 -1599 -1409#0 1418#20 312 1593 1418#5 1404#0 -936#4 -1418#26 -819 -1404#1 348 291#2 -844 -1532 905 793#0 1411#0 288#1 1510 -822#1 -1418#20 -298 -821#1 106#1 -297#2 183 900#3 -826#0 -818#0 936#3 1409#0 -1414#2 -848 842#0 -811#1 907#4 823#1 -1404#4 818#0 -1415#1 -933#1 1509#2 -1404#0 -1418#27 -1408 -1407#2 1404#4 -1422#6 -824#8 -936#6 -1535 816#2 1003 -303#0 793#1 -834#4 -824#5 -824#2 -936#5 292#1 843#1 936#0 -861#1 1406 297#2 806#1 -1533 -1410#0 900#2 -1418#23 899 -842#1 -824#6 1417#2 1414#3 1422#2 824#6 -1406 1404#2 -936#0 815#1 -1414#1 1422#1 -823#0 -828 1408 816#1 1410#0 1386#5 216#2 -1422#2 291#0 -1422#11 -822#0 -1403#1 -1418#5 -216#2 -1418#3 -834#3 -811#0 1509#1 -1422#7 1418#12 1411#1 826#0 -1416 1416 -816#0 -1418#7 1418#21 -216#5 1407#0 733#0 -905 1274 -1407#1 -835#1 296 1407#3 861#1 -793#2 1397#1 -816#1 818#2 -1418#18 -812#1 -834#0 824#1 -834#2 -824#3 -1422#4 -303#1 775 -153 -185 1418#2 1597 933#3 -1418#25 1412 807#2 -806#1 1414#1 834#0 790#6 315 832 105#1 1419#1 -936#7 295 1271 -834#6 443#0 835#0 815#0 -1407#4 -1414#0 907#2 -938#1 216#5 -301 -1417#2 216#7 297#3 -818#2 1409#1 826#1 -1534#1 -814#1 1414#2 844 829 -1508 303#3 1397#0 812#1 -315 -824#7 1523#0 671 -1509#0 820#0 820#1 1276 -826#1 1422#5 -1418#19 1410#2 -839 -1410#2 834#3 -754#1 -399 -824#0 -297#1 216#1 807#1 861#0 1523#1 -861#2 -671 216#0 -813 -1418#13 -1418#0 -1276 -295 -936#3 216#3 1415#1 826#2 1417#0 1533 297#1 821#2 813 839 -733#0 -303#2 -1275 -1395#2 -1417#0 -303#3 933#1 -820#2 1403#0 1407#1 811#1 831 845 1000#1 1534#0 435 -845 824#5 1417#1 1418#24 1422#6 164 821#0 -216#10 -292#1 -938#0 1404#3 1418#25 814#1 838#0 913 -288#1 -936#1 834#2 297#0 842#2 -1418#16 -186 374#0 -374#0 -1415#3 -1395#1 104 -807#0 898 -775 1418#6 -818#1 -807#2 -1412 -337 186 821#1 937#0 1395#3 -1397#0 -1534#0 1422#9 1404#5 216#8 848 1418#13 -814#0 909 -934 -827 -1000#0 298 936#7 816#0 -1413 841#0 -838#1 -1271 1405 820#2 1418#11 1415#4 -1419#1 -936#2 822#1 824#2 827 -1415#0 374#1 -820#1 1422#0 -302 -216#7 -843#0 1422#3 1418#9 -1396#1 938#1 -1422#9 -842#0 -1418#6 1000#0 -835#0 936#6 -1396#0 443#1 1273 -1418#10 216#6 -838#0 -807#1 1396#0 -1422#0 908 -216#3 -1274 -1414#3 -793#1 -312 -834#1 -823#1 1392 1415#3 840 -833#0 -297#0 -831 -834#5 936#1 -216#4 -815#1 291#3 -216#6 1404#1 -1509#2 -1418#12 303#2 818#1 1422#11 1369#0 833#0 -1418#2 -834#8 -1000#1 833#1 1418#7 934 1418#8 824#7 835#1 -1418#1 834#4 294#2 -1509#3 1395#1 793#2 834#8 1415#2 301 -933#3 216#9 841#1 -1407#0 1509#3 -833#1 -1415#2 -1422#8 -1369#0 -1523#1 938#0 834#1" id="12"/>
    <taz edges="830#1 1358 1384#0 760#0 935#3 1338 1332#1 -1266#2 445 -342 540#3 390#0 -999#1 -1261#9 -667 964 -752#1 -1433#3 -910 -1269#3 -1345#6 -387 -755#5 -997 1377#3 -975 1391#9 1434#1 960#1 -1384#5 968 672 -755#2 643#1 928#0 1366#2 830#8 1369#9 -1391#2 1269#7 -1008 -1520#1 -992#0 -996 1361#0 1391#0 542#1 -255 -1382#0 -560 -654#0 1331#0 901 -1261#1 -1328#8 641#0 397 1382#5 1520#0 -852 -1393#4 1368#0 850#1 17 754#1 -1364#2 1369#5 -258#0 -343 -661#1 372 -1345#4 -1425#0 -541#0 -668#8 -1393#5 1261#0 306 -648 377#1 -955 483#0 551 955 1330#0 283 -486#0 -764 -1362#2 932#0 914 539 -1384#1 -935#4 259 1328#9 -959 761 557#0 206 -1367 1261#2 987#2 -1361#4 -756 -392#2 556 481 -1329#1 1369#12 -673 -906 1426 1386#2 -1261#2 341 885 999#1 1382#4 635#1 654#0 -555 1328#0 977#0 763 -1261#13 1261#9 1393#1 1334 -935#6 1328#8 -380 991#0 -1382#4 1008 -830#2 -741 1269#4 -968 635#0 660 767 904#1 953 162 853#2 969#1 1512#2 755#4 1328#2 -1389 1366#1 -1391#6 -246 559 -307#0 1534#1 -830#4 -390#2 -398 1384#4 486#1 658 669#1 247 540#0 -1360 -1335#4 -1434#4 -979#1 979#0 1361#2 -999#0 -1382#3 1382#1 1393#6 980 446 -389 1598 540#1 -660 1434#3 811#0 -1361#2 -284 977#1 -1386#4 -390#1 -652#0 -954 1365 257 1388 -266 -1345#7 1369#1 258#1 -971#0 651 957 229#1 -1362#0 -1261#3 755#0 668#8 972#1 -171 -535 -1521 1345#7 1391#5 -1261#7 -664 -1266#1 -1369#12 -1332#0 1522 -1507 1384#3 386#1 -1387#1 668#4 -647#1 -853#1 -183 1368#1 -1377#3 -1328#9 1588#1 970 -979#0 -307#2 -1434#6 1369#6 976 -1391#1 -674#0 -1523#0 -442 669#0 1391#11 388 986 -766 649 654#2 926 966 16 1364#4 -1001 1384#1 430#1 -1384#3 -1369#11 -1399 -655#1 -381#1 -928#1 1362#4 -218 -485 1433#1 -760#1 962#3 -1398#0 -483#2 1383#2 -1002 1261#7 1424 974 -1393#0 -901 429#2 -282 652#0 -977#0 661#0 -1393#1 -1328#3 555 -638#0 1333 -755#3 952 -15 -18 -285 -962#2 1399 850#2 -1369#2 852 263 560 378 303#1 -392#0 1434#8 389 -1522 853#0 1593 -1391#3 1001 757 -1269#5 -647#0 -762#2 1351#1 -1398#7 -952 647#0 766 -1429 851 958 992#1 -1331#1 -928#2 -1532 -1366#2 -669#0 -830#5 971#0 1269#5 -1511 -262#1 -657 -1377#0 -542#1 -978 -1432#0 1600 -904#1 -1394#0 -1400#1 -1434#7 1332#0 1590#1 -446 -755#4 183 429#1 -1377#1 -1328#0 -322 762#0 962#0 -381#0 1328#1 -1261#6 -1261#10 390#3 -388 668#7 -483#4 967 -1391#10 752#0 -379 1335#3 -957 380 -483#1 -960#1 -668#5 542#0 1329#0 643#0 1261#13 1361#4 635#2 -1535 -558#0 -963 1261#5 -546 1003 1270 377#0 -762#0 -340 -1335#2 -303#0 381#0 -1266#0 -1518 -962#1 442 1261#11 959 -1328#6 -263 1391#10 -643#0 -1391#0 -981 -759 558#3 1384#2 267#0 762#2 -773#0 1269#0 -1533 -972#1 -977#1 322 -830#7 558#0 -1427#0 668#3 -642 1398#1 -749#0 -1368#0 770#2 -613 307#1 -321 -1386#2 -339 1383#0 987#1 675 307#0 538 390#1 1434#6 -643#1 -972#0 -962#0 1370 -1433#2 -1398#3 1386#1 -886 545 618 646 932#1 -655#0 307#3 1261#1 260 541#0 -1369#6 1345#6 1377#2 483#6 759 1432#1 -1269#7 -540#2 1386#5 1589#1 282 344 640 -763 -991#0 258#0 -1363 -390#3 542#2 1425#1 902 756 -384 -1434#1 -935#5 773#1 1394#1 1364#2 -538 262#2 -539 -262#2 758 -649 -755#1 1511 963 1512#0 1393#3 -811#0 -635#2 -928#0 346 -772 755#8 825 1330#3 484 -956 -1393#6 -1375#0 978 304 -561 1391#2 605 -542#0 -543#1 1335#1 1382#6 1391#1 246 661#1 -658 935#2 954 -902 550 -541#1 256 -1335#0 307#2 -1328#7 -1391#5 -982 1512#1 765 264 670 558#2 638#2 752#1 973 -643#3 774 -643#2 1362#2 -635#1 -1362#1 956 -1361#0 1401#1 1363 -1386#0 265 -385 1328#7 -755#0 -483#6 935#4 887 -928#4 -967 638#0 267#1 -830#1 1434#9 769 886 -1400#0 -984#1 -962#3 266 -551 -1530 850#3 485 -346 373 483#5 906 984#1 -1383#3 830#6 -887 -812#1 991#1 1331#1 -542#2 428#1 674#0 -1351#0 -1328#1 1429 -1391#8 -1331#0 -1364#1 245 830#3 1335#4 -650 -935#3 -303#1 1361#3 -1384#4 -928#3 -1369#9 668#5 -1328#5 990 -1432#1 -958 134#1 -558#3 1597 969#0 -553 -558#2 1389 647#2 -544#0 1261#8 1369#8 1330#2 1427#0 -1384#0 -645#1 674#1 -1365 -481 965 -1425#1 -1377#2 -543#0 -1391#9 -754#0 -1351#2 -1520#0 1398#6 1351#2 -635#0 -1269#1 962#2 -1372 381#1 1271 -639 -245 -976 -16 -228 -659#0 -672 -935#0 830#7 -641#1 -1335#3 -605 -647#2 -1426 1393#4 -637 -669#2 1266#1 -1382#5 1398#7 -851 1329#3 -544#1 -644 1345#4 -320 -659#1 -830#6 1329#1 -1333 755#1 -1433#1 983 -441 -974 339 -392#3 -1382#2 -557#1 1377#1 1592#1 -755#8 1261#10 -969#0 -768 -970 -1391#11 1369#10 -1369#3 -1600 770#1 -1269#2 -1534#1 284 -345 992#0 652#1 929#0 477 853#1 549 -770#2 -896 -830#0 812#1 993 1328#3 -477 -668#4 1328#6 -261 1523#0 -638#1 -993 -373 -382 850#4 -953 668#6 -765 754#0 -670 987#3 1383#1 830#4 830#5 1520#1 544#1 655#1 1434#5 -1261#5 -392#1 1335#0 666 -1398#4 -969#1 928#2 1261#6 486#0 -754#1 -1383#2 427 -265 -1369#7 1431#1 483#2 -533#0 310#1 1369#2 1434#4 -390#0 -1270 -1371 -731#0 641#1 -654#2 -926 1391#7 645#1 674#2 392#3 1533 1266#0 962#1 -1427#1 644 1369#3 643#2 638#1 645#0 -1329#0 -641#0 -663 -668#7 343 -548 1269#6 773#0 -1387#0 1362#0 -1364#3 -960#0 -1362#4 554 -990 300 1534#0 429#0 853#4 1266#2 557#1 -1269#6 -1391#4 768 -753 -1434#0 1331#2 960#0 1364#1 1394#0 164 1382#2 561 995 1328#5 285 -1329#3 -752#0 647#1 929#1 -987#3 342 -372 -760#0 -668#6 1269#3 770#0 1391#4 -1431#0 971#1 345 1378 387 -305 928#3 979#1 -853#2 -1376 -262#0 1384#5 -134#0 483#3 -767 -307#1 650 1369#4 656 -483#5 -1361#1 -1269#4 1398#0 668#0 760#1 1394#2 -341 -1534#0 668#2 428#0 -983 558#1 1425#0 1362#3 320 1364#3 1530 -770#0 -770#1 -995 -653 -547 996 -1386#3 1261#12 1369#11 -1261#14 -377#2 -244 1387#1 -640 -1434#8 654#1 -1362#3 -556 436 541#1 755#3 927 -927 -557#0 -668#2 211#1 543#0 -1331#2 547 -1369#5 1391#6 210 904#0 961 548 386#0 -656 -1271 999#0 -992#1 -540#3 392#1 997 -247 1391#3 -1434#2 -559 -550 -980 1434#7 535 982 -1369#10 382 338#1 667 659#1 1261#3 1375#1 -966 -1329#2 1383#3 1515 268 668#1 -1374 -397 1507 -1351#1 -1386#1 -668#1 753 830#0 -1261#12 -812#0 -1332#1 1432#0 636 935#0 -1330#2 299 370 -1431#1 1351#0 1371 1393#5 1390 392#2 398 -1358 -344 1329#2 -1345#5 -256 1345#5 340 -853#3 -283 -1328#2 1386#4 -1330#0 -386#1 853#3 830#2 1398#4 1261#14 321 -1366#0 -1383#1 -259 -668#3 211#0 1269#1 -1598 1362#1 -675 171 669#2 984#0 1398#5 928#1 639 -773#1 -483#0 -1261#8 -267#1 543#1 1367 1433#3 -377#1 -545 483#1 -258#1 -769 935#6 483#4 -987#2 1434#0 -645#0 -758 -669#1 1387#0 1377#0 -1390 -662 -618 -260 -1369#1 -1393#2 -935#2 214#1 161 -1369#8 -17 -1398#1 540#2 552 -1261#11 -984#0 -378 1372 -1335#1 -654#1 1391#8 -971#1 18 665 888 -1361#3 -1393#3 -674#1 755#2 -264 -445 648 -558#1 1400#1 262#0 379 -825 -964 -1261#4 1269#2 1335#2 -987#0 -540#1 1521 935#5 1512#3 613 1393#2 972#0 -484 928#4 1369#0 1427#1 1376 771 659#0 -483#3 -904#0 1385 -1345#8 664 -668#0 1393#7 1267 -1434#3 -1269#0 546 653 -386#0 -1398#6 1382#3 1386#3 -853#4 385 305 981 -540#0 -552 -377#0 -1384#2 1261#4 1345#8 -991#1 -1262 -549 1361#1 377#2 643#3 -1383#0 663 -1366#1 261 -267#0 -1330#3 1398#3 -1434#5 -853#0 -1391#7 -973 741 -1382#1 -674#2 772 642 673 975 -665 -987#1 -965 987#0 -1261#0 -1369#4 -830#3 1518 483#7 262#1 -1398#5 1434#2 1325#6 244 -1334 -661#0 286 390#2 1369#7 -1394#1 -1515 -771 1433#2 437 -1369#0 -761 -666" id="11"/>
    <taz edges="1394#2 1399 1530 -928#3 1593 757 1597 211#1 -1398#7 766 849 210 -1532 187 982 -1419#1 1419#1 1398#6 -1394#0 -1400#1 1590#1 928#4 -187 1398#7 299 -441 1592#1 932#0 -1420 -1535 929#0 171 984#0 1398#5 -773#0 1523#0 -773#1 163 -935#6 -765 935#6 -1402 932#1 -984#0 1523#1 888 1589#1 1400#1 -825 935#5 773#0 -935#5 773#1 -1401#0 1394#1 -1419#0 825 300 -171 -1398#6 1394#0 1588#1 -1523#0 -982 765 929#1 -766 774 430#1 -1399 1401#1 928#3 -1398#5 1420 -928#4 -1393#0 286 -1394#1 437 -1400#0 -984#1 -1523#1 -1530 984#1" id="17"/>
    <taz edges="928#4 163 434 -1335#3 -171 668#0 -1521 -668#0 390#3 668#2 674#0 -321 304 -561 668#4 -668#1 850#2 1335#4 1588#1 1335#3 305 668#1 -928#3 214#1 561 668#5 -668#5 -674#0 850#1 436 307#3 -668#2 211#1 668#3 210 430#1 958 -1335#4 1589#1 -1335#2 1378 -1518 -390#3 321 1335#2 -305 1518 -668#3 1521 211#0 928#3 430#0 171 -928#4 -668#4 429#2 382 437 209#1 268 -382 850#4" id="16"/>