<tazs>
    <taz edges="" id="33"/>
    <taz edges="1593 464" id="45"/>
    <taz edges="" id="34"/>
    <taz edges="891 -891" id="44"/>
    <taz edges="1364 -1364" id="43"/>
    <taz edges="" id="32"/>
    <taz edges="-1380#0 1380#0" id="42"/>
    <taz edges="" id="41"/>
    <taz edges="-1406 1406" id="31"/>
    <taz edges="-712#1 -743#1 383 -1480#3 1326#1 -352 499#0 618#0 215 389 -929#7 1153 -366#2 -1341#9 1481 -562#3 -1250#1 355#1 817#1 -560 632 1341#3 -291 1202#0 1308#5 -287 879#3 -890#0 -852 -1256#3 1145#3 -577 787#1 593#4 348 855#2 -1341#6 -13#0 713#1 439#4 1326#3 723 -579#5 -494#0 -888#5 -691#2 592#1 -562#5 -790#0 734#3 1324#4 1194#1 747#0 917#8 592#4 -520#6 292#1 -294#3 -282#0 683#2 -784 682#1 -506 -747#2 694 -888#0 -1492 -708#0 691#5 360#1 860#2 -604#0 -588#1 1341#10 -707#1 572#1 683#1 1256#1 -699#1 351#3 -495#0 -697 1211 594 879#8 1175#1 -294#0 1203 617#4 -691#0 582#7 255 -572#0 293#3 -1491#1 590#0 1333#3 895#2 1219#0 1151#2 -525#0 1328 929#6 562#4 -564#1 -888#4 744 -816#2 1365 359#1 -584#1 579#3 -519#0 565 1195#0 714 -813 358#2 1205 -521#1 -788 888#3 -575#0 -575#1 -885#0 -787#1 292#0 -777 -783 728#5 -609#1 917#6 -855#1 366#2 592#3 -1498#0 439#5 752#0 627#3 -698 -888#1 -752#2 375#1 440#8 617#2 394#0 752#4 1229#2 -793 -562#4 807 -524#0 563#4 815#1 -354#1 707#0 1144 507#1 257#2 683#0 -617#2 920 521#1 1168 349 -696 412#1 -101 733#0 812#0 -499#0 316#0 728#4 -1256#4 -1480#0 -721#0 -804#1 563#1 -296 -416#0 364 1204#1 863#2 -866 1212#2 1142#0 567#0 242 -1341#12 -683#2 394#5 -593#4 712#1 -369#1 439#0 351#2 -590#1 -699#0 -293#2 497#2 617#1 1241#0 1147 279#0 584#1 879#11 -1420#0 -1194#0 788 -708#1 721#2 -890#4 -799 520#7 -1486#1 740#0 -703#2 -1332#1 -733#1 593#2 367 730#9 1341#12 932#0 721#0 -292#2 815#0 691#0 -752#4 890#5 -700#1 593#5 1146#6 365 1215 601#3 681 -700#0 -864#1 811#1 520#0 1222#0 506 794 748#5 -678 855#4 1482 158 16 712#0 -618#0 -564#0 564#0 907#1 726#2 879#1 -1346 563#2 294#4 -281 790#3 582#8 592#0 -624#1 563#0 -592#4 -363 529#2 496 -748#0 1491#1 -582#1 -507#1 789 1341#15 10 -728#4 -193 791#0 -572#1 -1341#15 711#1 -812#1 -592#3 1170#2 -858#2 593#0 505 15#1 -917#8 701#2 1195#3 1194#0 499#2 1226 621#0 725 360#5 1252#0 -688 1216#0 1343#1 1367#0 -907#2 1575 439#9 -521#0 800#0 818#1 -694 -867#0 627#2 1479#0 519#3 -1479#0 -408 240#0 -520#2 316#1 -520#1 -743#0 929#7 440#2 -1341#10 893 -815#2 1550 -614 593#1 909 1341#11 793 -242 -294#1 293#4 110 917#7 1175#3 739#2 -728#5 226 -610#0 1479#2 -81 619 -574 579#6 -803#1 863#1 13#1 1488 -12 -705#0 1256#4 803#0 1173#2 1220#3 572#0 582#6 1208#0 631 1219#1 -803#0 -858#0 1213#1 1218#1 862#0 -711#1 -727 878#0 -703#0 860#4 -917#5 560 1220#2 718 287 867#1 531 705#4 1146#1 888#4 719 1191#0 495#1 1141#4 795 569#2 -787#5 -682#1 734#2 858#5 276 -918 895#1 108 728#1 502#2 -576 -798 373 -858#1 903 587 -604#2 -739#2 1223#0 439#8 1227 629 737#0 -728#0 -601#0 -867#1 861 879#4 1193 -1486#2 187#1 695 -582#7 630#3 -375#0 858#2 -593#3 528 -502#1 1225 -730#4 1200#1 -691#5 371 1139 -715 1324#2 176 1201 562#1 585#0 -802 -929#6 -705#1 783 1326#2 1342#1 -520#0 1341#9 -812#0 884#0 -1482 -98 -746#1 779 886 -690 748#0 282#1 -739#1 801 296 526 -209 773 1148#0 -632 15#6 -790#3 569#1 1192 686 -383 -353#0 1346 -686 609#2 568 -1329 785 354#0 283 1302#10 703#1 519#2 -592#2 -775 572#2 -778 579#2 1374 784 13#0 -811#1 864#1 -416#1 1327#1 787#0 -730#6 -491#0 1138#1 -773 724 792#0 817#0 -730#9 -713#0 748#2 1222#1 -776 1486#3 878#3 1209#2 863#0 1484#3 -1252#1 -1367#0 -317 520#1 703#2 1175#2 581 705#0 530 748#6 1141#2 733#1 1480#2 878#4 857#2 -800#0 525#0 -805 1136 -604#1 -683#3 -1586#0 -748#3 1484#1 734#4 523 1218#2 -683#1 244#0 747#1 -730#8 394#1 746#2 1145#0 1151#1 1332#1 -568 369#0 1188 1141#3 925 743#1 -580 -860#0 319#1 813 602 1171 799 -1308#3 -742 106 416#0 -617#0 -588#2 888#2 -375#1 -1342#0 -519#3 622#2 727 752#2 -276 878#1 690 298#0 1342#0 97 187#0 1480#0 617#5 1169#2 1366 1170#0 521#0 798 -582#2 907#0 351#1 -319#0 -582#10 -780 440#6 855#1 284#0 353#0 601#2 -1486#0 -105 677 -855#2 455 -790#1 582#2 1341#5 582#3 285 -226 734#1 -1343#0 -1585 257#1 1146#2 748#1 1151#3 -582#9 576 -593#1 1334#2 1149#2 730#6 -719 1196 739#1 811#0 -864#0 298#2 366#0 351#4 804#1 579#5 -1480#2 856#2 -682#0 -785 705#3 1137#0 212 1546 708#0 569#3 582#1 -1341#0 700#1 1480#3 15#4 562#0 -609#2 1324#3 868 741#1 416#1 919 -366#0 1210 583#2 1152#2 257#0 -787#2 859 735 908 590#1 360#2 676 -579#1 -181 787#4 780 1334#0 -726#1 -816#1 1202#1 -733#0 703#0 1179#1 -1302#12 275 -1491#0 -622#3 1190 -278 -703#1 687 -685 1170#1 902#3 585#2 363 856#0 879#5 734#0 1169#1 -582#6 -292#1 746#1 -818#1 294#2 -1369#2 858#1 1250#1 613 -592#0 299 715 -795 730#5 -1341#1 857#4 580 413 440#3 -815#1 394#2 100 -684 786 -752#3 902#1 -1480#1 -373 857#1 -739#3 -730#2 582#9 -855#0 561#1 -752#5 15#3 1169#0 854 -255 -629 -248#0 103 1586#1 730#4 -282#2 -790#2 -859 -258 -583#2 257#3 585#4 -1408#7 -624#0 741#0 1491#2 -579#6 620 688 601#1 699#1 -1252#0 -917#4 1333#2 564#1 710 -1479#2 1219#2 566 573#1 623#1 792#2 615 628 726#0 279#1 278 729 1250#3 1154 1303#2 -1483 722 520#8 -622#1 -1341#3 -744 -579#2 -573#0 186 562#6 610#1 -277 604#1 1342#2 1217#2 792#1 -215 -1256#2 516 -710 -903 -394#0 -494#2 865 -819#0 -527 240#1 -1367#2 627#0 678 -676 -531 -599 -858#4 447 742 -927#0 497#1 81 866 1341#6 -705#4 747#2 -601#3 -720 -505 1135 -1491#4 320 564#2 569#4 1483 -282#3 1206 -582#4 679 1194#2 1146#5 369#1 800#1 721#1 -716 -494#4 -705#3 685 806 -593#2 894 624#1 1329 319#0 609#1 293#2 -530 -496 356 1216#1 -1341#13 502#1 -315 1343#2 858#4 394#3 -884#1 622#3 862#1 -1491#2 352 -579#0 888#5 716 732#2 -513 1220#0 -601#1 1138#0 -1250#2 -394#2 1585 -811#0 732#5 -564#2 -293#1 -728#2 -877 -786 -1194#1 -514 -868 705#2 -519#2 -907#1 494#0 790#2 -730#7 787#3 1175#0 -1341#7 787#2 -787#4 494#2 -617#3 513 579#1 -615 1209#1 860#0 1587 737#2 494#3 -733#2 573#0 604#2 -1308#4 691#2 927#0 -865 800#2 819#0 -807 860#1 -353#1 1195#1 739#3 -212 -691#3 499#1 1231 -730#3 816#0 293#1 709 350 1324#0 -584#0 693 -1328 728#3 1547 1173#0 884#1 408 1165 680 604#0 -579#4 499#3 -679 181 888#0 294#1 -292#0 -566 -917#7 355#2 116 1586#0 -318 258 623#0 -726#2 578 -1308#0 -294#2 1333#0 -782 -797 293#0 932#1 -920 -622#0 -602 682#0 359#0 -864#2 595 609#0 598#1 354#2 -748#1 713#0 -748#2 -748#4 1491#4 885#0 736 -1327#0 -319#1 1217#0 524#0 612 -888#3 -1404#0 730#0 -725 701#1 1172#1 752#1 617#0 570 494#1 -817#1 1149#0 730#7 743#0 -1302#10 579#4 599 -917#6 630#2 -730#1 689 791#4 1220#1 248#0 582#11 -495#1 177 -1341#8 -752#1 -240#1 -389 791#1 -721#1 860#3 -520#3 -1341#14 -739#0 318 -562#2 -562#1 696 -687 583#1 739#0 740#1 519#1 -855#3 775 -885#1 1341#8 291 902#4 1490 1151#0 730#2 -499#3 1229#1 -361 -907#0 1486#0 -612 815#2 -856#0 15#5 732#0 -1488 440#1 -13#1 852 280 11#0 879#2 -860#4 -10 -562#0 -589 -240#0 816#1 600 864#0 778 -1341#16 879#6 728#2 -197 1302#11 -728#1 -741#0 1420#0 294#0 -293#0 439#7 -702 917#5 691#4 -856#2 -884#0 -733#3 -728#3 1341#1 1549#0 355#0 -618#1 1174#0 1327#0 -526 856#1 412#0 803#1 -893 752#3 1486#1 -622#2 -737#0 -394#5 582#5 1189 614 626 585#3 1371 -691#4 1173#1 700#0 375#0 520#9 -617#1 1146#4 -394#1 567#1 491#0 -367 520#2 752#6 -1258 358#3 -359#1 15#2 -520#4 918 621#1 1212#0 1223#1 524#1 730#11 1343#0 622#1 -787#0 -730#5 -106 112 357 563#3 917#2 -752#6 699#0 -1302#11 745 -854 -104 705#1 575#1 -800#2 244#2 878#2 708#1 -746#0 702 1491#3 -860#1 701#0 805 -520#9 -746#2 895#4 -1485 -519#1 354#1 726#1 -726#0 520#4 1324#1 1341#4 1213#0 -578 -590#0 -890#5 1548 111 618#1 495#0 1252#1 -562#6 -721#2 683#3 -582#3 -1342#1 362 -1586#1 -598#1 1577 -293#4 1333#1 105 1191#1 -110 -499#2 -598#2 -855#4 12 577 -282#1 617#3 277 597 -587 -705#2 730#3 561#0 -579#3 -354#2 -789 317 -722 -494#1 1141#0 855#0 -348 802 1150 857#0 562#2 -597 -279#0 -1486#3 -628 1408#7 -108 1250#0 675 443#1 -1490 1341#7 360#0 -601#2 1141#1 1308#2 625#1 720 -692 732#3 -804#2 529#1 589 864#2 790#1 561#2 -499#1 292#2 -617#5 360#4 -860#3 514 790#0 674 -704 284#1 1174#1 98 895#3 -582#5 858#0 -520#7 -1308#2 207 -752#0 -293#3 791#5 -529#0 1217#1 582#10 -502#0 579#0 1207 717 -593#5 1212#1 598#2 -804#0 -369#0 244#3 593#3 776 -779 -1307 1145#1 -1343#3 -501 -279#1 857#3 104 1341#13 361 -1332#0 -917#2 -706 281 -815#0 -713#1 -693 15#0 1486#2 804#2 -860#2 1172#0 439#2 691#3 494#4 -801 -1341#4 -787#3 1195#4 -748#5 574 622#0 520#3 1326#0 1179#0 -856#1 501 248#1 -741#1 774 -730#10 179 1308#0 -1341#5 787#5 -817#0 -394#3 -689 1166 -354#0 1214 -1365 -806 443#0 -520#8 -1250#0 -520#5 707#1 575#0 1258 193 1229#0 888#1 -610#1 360#3 748#4 -816#0 1218#0 -592#1 1148#1 1491#0 -593#0 -529#1 -794 1256#3 562#3 520#6 -190 -275 1145#2 -717 1367#2 777 582#4 -1327#1 584#0 732#4 902#0 583#0 782 562#5 -626 -858#5 261 1479#1 1549#1 563#5 1576 -730#0 -359#0 -730#11 907#2 733#3 -1479#1 -1308#1 -683#0 1221 440#0 917#3 315 1485 684 -1343#1 -294#4 867#0 -572#2 1307 -677 1256#2 -600 -617#4 1343#3 294#3 1341#0 1142#1 730#8 -1491#3 588#2 -529#2 -582#8 1241#1 -176 748#3 1480#1 -888#2 1175#4 591 527 -186 -350 1209#0 1308#1 -1587 630#1 -747#1 890#4 15#7 816#2 569#0 520#5 -1343#2 586 -707#0 885#1 -1342#2 522 1308#3 585#1 698 157 -1256#1 855#3 1492 1308#4 -609#0 243 1498#0 -502#2 -1250#3 190 -748#6 -747#0 853 730#1 781 -455 -581 -781 588#1 -723 282#3 625#2 627#1 353#1 733#2 1250#2 -714 515 488 -567#0 -623#0 1334#1 692 1146#3 440#4 1152#0 791#2 -613 -524#1 1137#1 282#2 -1341#11 -917#3 791#3 879#7 592#2 -494#3 -712#0 -800#1 -583#0 732#1 -1194#2 439#6 1195#2 529#0 1341#14 752#5 -573#1 730#10 282#0 197 1484#2 1341#16 -522 -583#1 917#4 697 -737#2 102 1200#0 -1303#2" id="1"/>
    <taz edges="-1274 -1269#0 127 448 -1273 1274 -87 911#1 -911#0 -448" id="20"/>
    <taz edges="1408#3 1511#0 -1306#2 82 23 -939#2 1513 -943 -1270#1 -1244#3 -1509 -1283#3 -493#4 473#0 1293#4 -82 -1293#0 1487 -1289#0 473#1 -487 -1299#1 227 -1276#2 1303#2 355#1 -1246#1 -1293#2 -1274 -1408#3 1501 941 -231 889#1 495#1 338#0 -92 1551#0 -453 937 939#0 1408#2 -87 -493#0 -1282#0 -1277#1 -473#1 1278 1303#0 368#0 -368#0 911#1 1277#1 1277#3 495#0 -1296#1 -1282#1 -1273 467#0 -474 497#1 1511#1 940 -494#0 391 -1306#0 135 1294#1 368#1 453 -493#5 480 489#4 338#2 -480 136 -1415 -499#2 -532#1 -1299#4 -368#1 338#3 892#1 -1513 457 -135 -940 1464#1 1287#0 198#0 -489#2 466 -1244#2 -448 915#0 176 -491#1 94 -496 376 -1283#0 493#3 1244#0 232 490#1 1283#1 -495#0 1283#0 1277#0 -911#0 -1289#2 239#1 1408#6 -472#0 -916 -131 -1286#1 1274 -1270#0 -980#1 471 -892#1 -98 -977 1408#7 -490#1 -937 1247#4 464 461 1156 1270#0 -1247#1 1286#1 -936 -462 -1284 1282#2 493#1 1159#2 -1299#0 1299#4 460 942 1477 -99 1282#0 -338#2 1291#3 1247#1 1288#1 1283#2 -489#1 1291#2 889#0 494#0 493#4 127 1296#1 198#1 98 -130 -1408#0 -1408#6 943 -1275#0 -1295#1 489#1 -458 1298#1 -938 130 1275#0 -1299#2 -1293#3 1408#1 -452 -1301 -491#0 -1295#0 1510 1478 -1408#1 -1306#1 892#0 -489#0 -1247#3 -1291#3 459 478 467#1 532#1 -1244#0 1293#0 -338#3 1270#3 -1277#2 -1298#1 1140 489#3 -1296#0 -889#0 936 1472 1283#3 1509 -1283#1 -1288#1 -467#1 939#2 1293#3 -1487 -1408#2 1292#0 1275#1 244#3 -467#0 -1298#0 472#1 -136 395 -478 131 -493#2 1247#2 493#0 -1286#0 -493#1 470 -501 -472#1 -461 -1246#0 -1244#4 -1511#1 -376 -1278 230 1246#2 -1296#4 -1276#1 1247#3 1298#0 915#1 -1245 1287#1 -234 499#3 1157#0 489#2 -1511#2 -493#3 1244#4 1299#2 -941 1408#5 501 -460 1288#0 -1275#1 1303#1 1511#2 -101 -1283#4 -1280 1158 1291#1 -889#1 -876 -479 892#2 1306#0 -1296#3 -1282#2 -122 1408#4 -1287#1 -1291#2 981 1301 458 -132 229 -1277#0 -465 97 1277#4 910 337 497#2 -1293#4 -459 -476#0 -1294#0 -93 1283#4 1244#1 489#0 -1420#3 1276#2 -1420#0 1306#1 1464#0 -1303#0 -338#0 -232 241 338#1 -1244#1 -1408#4 -1247#0 238#0 -1247#4 -915#0 -910 -495#1 -473#0 -1283#2 -227 977 -1510 1160 -1291#0 916 -1276#0 999 -1289#1 238#1 -471 1304 -1246#2 1157#1 -228 -89 -1292#0 -466 1245 1299#0 476#0 1296#0 -939#1 -176 95 -892#0 -1303#1 1270#1 1289#0 1295#1 1244#3 -499#3 462 -1501 1302#0 231 1296#3 452 1282#1 472#0 1276#1 1294#0 1551#1 493#2 1244#2 1293#1 -1511#0 496 1159#1 -999 1420#3 -1277#4 479 -229 -337 474 -1293#1 938 -338#1 -489#4 1420#0 -1291#1 1296#4 -1288#0 -489#3 -457 1408#0 243 355#0 476#1 -1477 89 99 -1299#3 -395 92 -1292#1 499#2 493#5 -1287#0 1464#2 1293#2 228 233 488 -935 -942 491#0 336 1306#2 -1270#2 -233 -336 1246#1 -230 -476#1 1286#0 1289#2 100 93 935 -1270#3 -1302#0 1299#3 -892#2 1299#1 1247#0 1295#0 1291#0 -939#0 -1269#0 -1277#3 1464#3 1289#1 1276#0 1292#1 -1247#2 1277#2 -391 103 -981 -915#1 -1294#1 1270#2 1593 234 939#1 357 1275#2 -1408#7 448 491#1 -470 487 102 -1408#5 -1303#2 1280" id="14"/>
    <taz edges="-124 -1271 124 1264 125 1269#1 -1268 -1269#0 1270#0 1266 1268 -125 126 -1415 -1269#1 128 -911#0 -128 -1264 1275#2 1267 1271 -1266 -1270#0 -1267 -126" id="19"/>
    <taz edges="-1421 1265 -1265 1421 1264 -1264" id="18"/>
    <taz edges="-636#0 -988 1310 1337 1377#3 863#1 601#1 1369#3 -1252#0 -917#4 1333#2 1488 160#0 1336 -1302#11 605 -1302#7 1326#1 -1373#1 -352 537 -104 745 623#1 701#2 631 906#2 -347 -1348#4 615 628 -1338#3 -746#0 862#0 1377#5 -1370#5 -1377#7 -509 729 860#4 -917#5 1250#3 433#3 -339 641#2 -860#1 -1341#9 1302#14 -562#3 701#0 -1250#1 1154 547 531 -520#9 520#8 -622#1 -543 -616 1315#5 -1579 -1341#3 -519#1 1338#0 1341#3 1338#9 963#0 954#3 520#4 -1248#11 562#6 1467 610#1 884#1 1308#5 -265#1 1320 1324#1 1342#2 338#0 -890#0 1412#1 1341#4 1176#1 -890#1 1551#0 265#1 1370#0 -534 -1347 1369#1 954#2 1343#4 -1338#2 -444#0 1419#8 -918 -979#2 -890#5 1420#2 -250 -1315#2 -1338#4 1312#4 728#1 988 -635 1312#1 850#3 111 -1348#5 855#2 -1341#6 -641#2 -637 1252#10 1377#11 -1367#2 246#1 1251#0 1252#1 -562#6 627#0 979#0 979#2 -531 -599 1252#4 1326#3 447 -1377#4 -1315#4 503#1 954#1 -1342#1 1341#6 -728#0 -601#0 641#1 -1338#0 -1586#1 -1348#0 -1302#9 -598#1 -26 -961#0 -849 549 -562#5 -1377#3 -1486#2 -601#3 338#2 246#0 1324#4 -505 917#8 636#2 -533 -917#0 881 -520#6 -1338#9 1302#7 1333#1 986#0 -881 105 -1369#1 507#0 1332#7 -598#2 1419#7 -532#1 890#2 -1414 369#1 535 1332#3 -855#4 503#4 -970 1302#2 1182#0 1302#13 -506 906#1 -1338#8 892#0 444#0 -1338#6 1182#1 1324#2 -494#4 597 1370#1 -25 -647 176 -954#2 433#2 1350 624#1 616 562#1 860#2 978 -1332#3 -1377#6 -1252#8 1329 561#0 1302#9 94 1341#10 609#1 -1312#3 957 1326#2 -896 855#0 1342#1 -1341#13 -1348#3 -1496 -520#0 1341#9 351#3 1343#2 -645#1 503#0 607 -1349#1 1302#8 606 -1498#1 594 -646 1345 1414 394#3 -606 884#0 -884#1 511 1338#2 562#2 352 862#1 -597 -1486#3 -980#1 -1252#9 1302#3 -746#1 -628 1349#1 -1377#11 1493 -385 1250#0 -1310 647 -1370#3 924#1 944#1 1341#7 -1412#0 -109 -601#2 -954#1 890#3 1308#2 -960 -924#1 1333#3 -601#1 625#1 -1250#2 -394#2 -961#1 -511 1585 -525#0 1177 -1369#3 -444#1 1328 -645#0 1579 -728#2 529#1 562#4 -353#0 1346 -986#1 -338#2 609#2 561#2 -1250#5 -1493 -1419#7 -1329 -514 1365 1184#1 -1312#5 -519#2 -1302#3 1302#10 519#2 -730#7 -519#0 -860#3 1338#3 -1332#4 543 514 -1341#7 -1420#1 1302#4 1252#7 -1369#0 206 1374 1314 -503#3 119 1315#2 -249#1 -1370#0 249#1 -1338#5 -603 -416#1 -520#7 -980#0 1338#5 -444#2 -1308#2 -615 1327#1 -1370#2 -1301 -730#6 850#4 1558 -957 646 1257 -1343#5 -529#0 -541#0 1348#2 -1423 -944#1 1587 25 860#0 478 1312#5 1155#0 494#3 504 -541#1 -730#9 1176#0 1412#0 1312#6 250 -265#0 582#10 603 -1296#0 -502#0 945 -508 -245 -503#0 -1308#4 1373#1 728#5 -1248#12 1486#3 1176#2 409#0 1302#5 612 -1252#10 -609#1 1377#4 -1252#1 717 641#3 -1367#0 860#1 636#1 -353#1 520#1 850#2 917#6 598#2 1155#1 -369#0 -212 -855#1 -1302#5 -547 641#0 -1376 -1498#0 1338#8 -959 -504 444#2 -478 433#0 890#1 1332#2 -1339 -640 -1307 959 970 709 -1312#2 -1343#3 -501 -611 1324#0 350 104 1341#13 544 636#0 525#0 -1315#0 -1252#2 1369#0 -944#2 -1332#0 1332#8 -1328 -917#2 1547 -1586#0 -706 1165 728#3 1252#11 1256#7 1348#3 -1348#7 -503#4 -1312#4 -137 617#2 1486#2 1312#3 -730#8 -263 262 394#1 -562#4 -860#2 1332#1 -524#0 -979#1 563#4 1250#5 494#4 409#1 369#0 -636#2 -1338#7 -1341#4 503#5 -249#0 1581 -546 1255 925 137 -24 507#1 -1377#9 1185#0 -1315#5 622#0 520#3 -860#0 -917#7 1326#0 -1335 -944#0 520#0 -617#2 116 633#2 1179#0 683#0 501 248#1 -1251#1 920 599 1377#9 1586#0 944#2 645#0 -730#10 602 258 -1252#11 1348#0 623#0 -510 1186 1308#0 -1497 550 -1308#0 -1341#5 -1308#3 1333#0 -394#3 1312#2 1315#4 1166 728#4 510 -1365 1376 932#1 -920 -378 -622#0 -602 416#0 -549 753 -520#8 563#1 -617#0 -890#2 -1250#0 -416#0 -520#5 1377#7 -1349#3 -122 863#2 265#0 -963#1 595 609#0 541#1 567#0 981 -206 -1342#0 -519#3 -610#1 1301 -944#3 1250#4 598#1 -132 622#2 -1350 954#0 1348#5 898 608 -529#1 -1341#12 1496 -1377#10 -1327#0 1342#0 -512 -1252#5 -979#3 394#5 562#3 1373#0 520#6 -1252#4 701#1 1178 1349#0 1338#6 -369#1 1366 351#2 -608 1170#0 617#1 -246#2 378 617#0 351#1 -384 396 1302#12 1367#2 1248#12 850#1 -476#0 -582#10 -1315#6 -1411 1343#5 500 1180#1 644 855#1 -1302#13 1252#6 1349#2 -641#3 -1327#1 -536 963#1 1338#7 -1330 353#0 601#2 -1420#3 -1420#0 -542#1 -544 730#7 1377#8 -1302#10 263 1348#7 -503#2 -1486#0 -105 -626 -1302#8 1183#2 1377#6 160#1 562#5 -338#0 -855#2 -917#6 645#2 338#1 917#0 563#5 -1250#4 -1349#0 1341#5 1349#4 -1256#7 1302#6 1369#2 -266 -1338#1 -890#4 266 -1308#1 -532#0 -683#0 248#0 582#11 532#1 -1343#0 -1377#0 -1585 -1486#1 520#7 917#3 508 -645#2 1349#3 1248#11 -1341#8 -1332#1 1370#4 246#2 980#0 -1343#1 990 730#9 1341#12 1312#0 1419#9 634 1557 932#0 979#3 533 -1252#7 906#0 1334#2 1307 -1349#4 -520#3 -890#3 860#3 890#5 -1341#14 1335 -753 961#1 1302#1 -562#2 730#6 -562#1 1343#3 -951 601#3 109 1341#0 1348#4 1370#3 -1314 -1412#1 730#8 -962 351#4 1162 -1420#2 249#0 -1348#2 -1343#4 1296#0 476#0 -246#0 519#1 -633#1 -529#2 1344 -855#3 944#3 1251#1 -176 1252#5 611 951 -346 506 -1332#8 1370#5 1341#8 -1257 -605 -1320 212 95 -892#0 1338#4 503#2 -350 855#4 -1331 385 1308#1 -1587 630#1 -1341#0 1330 890#4 -636#1 649 -550 -503#1 524#0 -1377#1 -612 1486#0 562#0 -609#2 -1346 -1370#1 -1370#4 1324#3 1302#0 563#2 -1373#0 -1488 1331 1377#2 1199 1181#0 -624#1 416#1 520#5 919 -979#0 -507#0 542#1 563#0 1420#1 896 -1343#2 -1349#2 -860#4 26 -1302#4 -641#0 633#1 859 529#2 -562#0 -1332#5 735 1315#3 -542#0 -1377#2 1420#3 -954#3 -246#1 -1377#5 1411 -507#1 -1341#16 433#1 728#2 1302#11 1252#9 1341#15 -728#1 -728#4 905 -1342#2 -338#1 1197 1252#2 850#0 1420#0 522 -1312#0 444#1 1184#0 1308#3 -1341#15 -535 1334#0 157 917#5 -537 -884#0 855#3 1497 1183#1 1375 1556 1308#4 -607 -609#0 -728#3 1341#1 -986#0 1179#1 -1302#12 1498#0 980#1 -905 -1250#3 1327#0 -1251#0 1370#2 1252#8 200 541#0 476#1 -1312#1 505 512 -958 627#1 1486#1 -633#2 -917#8 -622#2 625#2 -1581 1377#10 -394#5 353#1 1250#2 536 614 626 -1337 1181#1 1371 1377#0 1423 1252#0 264 -1348#6 -1332#2 -1419#8 -954#0 1315#0 1343#1 -963#0 746#1 1367#0 1315#1 1498#1 1164 1348#1 944#0 -1369#2 1183#0 1250#1 520#9 -617#1 1180#0 534 613 -567#0 -394#1 -623#0 1332#4 1334#1 346 567#1 1167 953 -945 958 520#2 627#2 546 1367#1 -1375 -476#1 519#3 -1315#3 -613 -524#1 960 1377#1 -1341#1 -1348#1 962 -1302#2 -520#4 -1341#11 394#2 -200 -520#2 -917#3 918 -1344 -1302#6 -262 917#7 -520#1 -1302#0 -1315#1 -494#3 640 -1252#6 1339 -396 1315#6 1332#6 1348#6 -1341#10 -1302#14 347 524#1 -614 529#0 1341#14 -855#0 561#1 503#3 1332#5 1341#11 509 1343#0 622#1 849 -248#0 -1345 -1377#8 961#0 -981 -859 -1302#1 -258 1341#16 1586#1 -522 -728#5 637 979#1 -610#0 645#1 917#4 563#3 -1367#1 -641#1 -624#0 1338#1 -1332#7 -1336 986#1 917#2 -1332#6" id="13"/>
    <taz edges="1393#2 -1407#8 1404#2 1508#0 1469#1 1390#1 -1580 1404#16 1466#3 -837#2 1505#0 -1407#3 1404#17 -929#7 1491#3 -927#1 1466#0 -829#7 1507#1 113 817#1 -838#1 -306#0 1240 1508#3 -830#0 1508#2 306#1 812#2 -1396#2 -823 1232 -1390#1 -1404#20 1470 -822 -829#6 1404#12 829#3 895#1 -903 -1397#1 1393#1 -819#0 1407#4 -1390#5 829#6 1383#0 1506 929#4 903 1555 1404#24 831 -927#0 -1404#21 -821#2 1238 -1393#0 -829#2 1404#1 297 1404#11 301 -790#0 1135 1401#0 292#1 -904#0 -1400#1 -836#1 1225 -1398 -929#3 -929#4 829#0 -929#0 751#1 814#2 -1492 1553 894 1236#1 821#0 -1404#11 -992#1 -830#2 -929#6 -1407#4 374#1 -814#2 -1407#9 -315 1381#1 -812#0 -819#5 300#2 -1491#2 829#4 1552#2 -374#1 -829#0 300#1 828#1 296 -209 443#1 819#8 838#1 -1490 -1491#1 -1395#0 829#8 -829#5 1495#0 1235#0 895#2 1390#5 -1401#0 1403#1 836#0 -811#0 -1403#1 -1395#1 1404#20 929#6 305 1393#3 -804#2 -877 -1404#18 -816#2 790#1 -821#0 -931#1 1239#0 -1404#19 1233 1407#11 669 -819#1 790#2 -1515 1404#10 790#0 1404#19 1404#7 1404#6 895#3 -829#4 904#0 -811#1 1401#3 207 1400#2 931#1 -1404#24 837#1 817#0 1465 292#0 834 1580 1507#2 115#1 823 -1381#1 -929#1 927#0 374#0 -904#1 819#0 1395#0 -807 -1262 1404#3 -829#3 1403#0 -804#0 814#0 -837#0 821#1 1231 826 -814#1 306#2 929#3 816#0 -1383#0 -1404#7 -1378 1466#1 -340 -900 1397#0 -1404#23 -1263 435 829#7 1405#1 -929#2 830#1 828#0 -815#0 1218#2 -1401#2 1404#18 1401#1 -929#5 -1404#8 843 804#2 1390#0 -1394 1383#1 1355#0 807 815#1 1508#1 -819#2 -821#1 1261 1228#1 1407#8 -826 -931#0 930#0 1404#5 1393#0 -292#0 -1404#12 -819#4 -1404#6 1243 -835 1389#1 -1393#1 -856#1 1381#0 300#3 -1260#1 -1404#10 -1383#1 1396#0 -318 349 829#1 1239#1 -374#0 -927#2 1390#2 1407#0 810#1 1404#27 -1407#6 812#0 -817#0 1466#2 833#0 1407#3 -804#1 -828#0 443#0 772 1228#0 -296 -1505#1 -842 115#0 1258 -834 -1391 1224 193 1229#0 -1390#0 -1392 -816#0 1491#0 -1382#1 -1390#2 298#0 -306#2 -930#1 1397#1 -1404#0 730#0 1260#0 818#0 -1397#0 -1393#3 1468 -838#0 -1403#2 -1400#3 -817#1 -1407#11 -1516#0 -1401#3 902#0 -297 1391 1382#0 829#5 992#1 -790#1 -730#0 -1396#1 -772 1382#1 -1381#0 -814#0 -819#7 1395#1 -1516#1 -1404#16 1390#4 -1407#2 208 -1405#1 1400#3 -304 -830#1 839 -1355#0 -1407#5 315 992#0 -1404#2 -1393#2 1381#2 -819#6 1552#3 -1404#3 815#0 1499 1392 1390#3 840 -1404#27 -1260#0 819#6 1407#1 837#2 318 -1404#1 995 929#1 819#1 811#0 -301 830#0 298#2 -1407#1 804#1 1407#7 -828#1 811#1 -1491#3 931#0 -1400#0 -1404#5 856#2 824 1407#2 -829#1 306#3 -927#3 -839 812#1 902#4 1490 -751#1 -1404#25 1401#2 -1261 1400#1 -1399 1229#1 1552#1 927#2 -1404#17 -669 1495#1 815#2 1236#0 -856#0 1474 816#2 -843 819#4 904#1 -1407#0 1403#2 1507#0 -819#3 1235#1 304 1404#25 -10 835 300#0 -306#3 842 816#1 908 -1499 1491#1 -819#8 -810#1 900 120#1 929#2 -992#0 -1396#0 1404#8 1404#9 10 1516#1 -818#0 -1390#4 -193 -930#0 821#2 340 -812#1 -856#2 -1403#0 1492 -300#3 1469#0 1552#0 -1400#2 -1402 -816#1 1263 1402 -300#2 1399 1407#9 830#2 -1491#0 1401#4 -831 -1401#1 856#1 803#1 -893 -1407#7 -829#8 902#3 836#1 -1382#0 856#0 -300#1 -810#0 1226 1515 -300#0 -827 -292#1 -113 -818#1 1404#26 1394 829#2 -1390#3 930#1 929#5 1404#13 -1404#9 -1505#0 819#3 818#1 927#3 299 1230 1260#1 -1258 -840 1505#1 1378 -305 819#2 825#8 -824 1404#21 -815#1 -1514 814#1 -837#1 1407#6 838#0 1237 1516#0 902#1 -208 -994 929#7 822 837#0 -836#0 -815#2 893 1143 -115#0 909 1396#1 1398 1407#5 929#0 819#5 -115#1 -790#2 819#7 927#1 1396#2 -306#1 -833#0 -1517 1404#23 827 -812#2 -1404#26 1491#2 -803#1 -1404#13 1262 -1389#1" id="12"/>
    <taz edges="-636#0 -752#6 -988 1377#3 539#0 825#5 873#4 -983#0 123 1369#3 272 557 764 -767#0 -398 1256#4 873#3 -1373#1 537 870 -1379#5 552 1355#2 984#0 652#0 -347 235 -1316#2 -1348#4 392#1 -746#0 -928#3 1505#0 -1318#0 928#0 1377#5 -1317#0 389 -1370#5 -484 1322#2 1409 -380 -1377#7 -750 -897 556#3 -1363#1 638 641#2 -269#1 1417#1 -759#2 287 1248#9 -671 -1253#1 27 547 880 -308 -543 -616 -969#0 -1579 -987 1248#2 1315#5 -306#0 1338#0 326 975 -985 963#0 -269#0 559 954#3 666#2 -1248#11 486#1 236#1 1363#0 1467 392#2 -639#1 -976#0 -1248#1 -287 -265#1 1320 -1353 -1419#3 -973 306#1 372 -555#0 1412#1 555#0 825#0 1354#1 265#1 1370#0 -534 -1347 1369#1 954#2 -548 -1256#2 -1256#3 -758 -1338#2 -1500 928#2 1419#8 545 -161 -390#0 -979#2 1322#3 1361#1 762 -1379#3 -1315#2 -972 1248#0 1248#13 -635 269#2 1418#1 988 -899#1 -1384#5 373 1377#11 -641#2 -637 -651 1363#1 -310#1 1187 875#3 540#1 979#0 267 979#2 1256#5 273#0 952#0 -1377#4 -659#1 -955 873#0 -1248#0 766 -1315#4 1363#2 438#4 551 954#1 -728#0 641#1 -666#0 -1338#0 -1348#0 308 873#2 -26 -961#0 1502#0 -1352#1 -236#1 549 1256#6 845#3 -1355#9 -1377#3 -1318#2 438#1 325 636#2 310#1 673 881 -1248#6 -952#0 666#8 -657#1 -881 483#2 -1369#1 1332#7 874 -638 1416#0 -486#1 -1322#4 1419#7 1316#1 -1414 871#0 983#0 875#4 539#1 -1253#2 847 1355#12 1200#1 410#1 -922#4 -970 251 -974 643#1 654 666#1 758 1182#0 -27 -922#1 273#1 1410#1 -666#8 969#0 -483#3 1182#1 749#1 -555#1 751#1 -1410#1 1370#1 -25 -984#1 972 1317#0 825#6 556#0 -647 871#1 -954#2 1253#0 1350 869#1 616 991#1 438#2 978 390#2 -1377#6 -666#2 759#2 964#1 -225 540#0 -666#5 -657#0 -964#1 -975 957 -896 -1318#1 -825#6 770#1 1256#1 -1348#3 -483#0 -1355#1 -645#1 -756 410#0 820 -1349#1 477 -344 387 553 -646 -825#0 -377#0 1345 1385 1414 1316#2 875#6 -1256#5 1338#2 -663 307 1355#8 657#1 984#1 1379#7 1317#3 -272 1349#1 1384#5 344 1353 -1377#11 321 1254 1493 -385 288 -738 341#1 -899#0 1380#1 -288 -1370#3 -652#2 -643#1 647 976#1 -1412#0 -557 -983#1 -1319#0 -109 -954#1 1489 659#0 253 -960 1363#3 947 1253#2 1379#4 -1317#2 -463 922#3 666#7 -961#1 483#4 949 -652#1 -661 -1352#0 -1369#3 1177 759#0 -633#0 -645#0 1579 -392#2 -1317#3 928#4 -921 327#1 556#1 -1360 329 -381#0 -991#0 -1493 -1419#7 -762 1502#1 1417#0 899#1 -1384#2 1184#1 971#0 875#0 -759#0 327#0 -1419#5 -343 666#4 -882 342 540#2 665 983#1 -1332#4 -1515 543 1248#7 274 -1256#6 -1369#0 1419#1 -1355#6 -1322#1 -387 -1248#10 1374 603 -928#5 1315#2 438#5 -1370#0 313#1 848#4 386#0 -1248#9 -551 -603 -1419#0 1494#0 -107 -342 370 379 -1370#2 -752#0 1418#3 310#2 398 964#0 482 1379#5 -1416#1 1558 646 -957 1257 -1358 -541#0 -545 1248#8 1348#2 -658 25 958 -397 1155#0 633#2 -541#1 1357 666#0 1412#0 270 -1363#3 -1418#1 -252 -265#0 1312#6 -948 1248#10 -235 -271 -1248#8 -766 -846 1248#4 1503 1358 -749#1 1373#1 436 486#0 945 -1248#12 409#0 1384#3 1176#2 -553 -765 756 1377#4 767#2 1419#2 641#3 -442 636#1 446 377#0 1155#1 269#0 386#1 897 921 -552 -971#1 -547 641#0 -1376 985 1242 -959 666#3 757#0 767#1 1321 -267 969#1 -390#2 433#0 -392#3 652#2 442 -946 -640 959 970 -1384#0 -667#0 643#0 752#0 -968 -611 848#1 1380#2 1318#1 390#1 544 636#0 650#0 -382 -752#2 -1315#0 -1355#11 1369#0 538#3 322 1332#8 -664 967 254 -324 922#0 1256#7 -928#0 750 -761 1355#10 1348#3 -1416#0 -1418#2 -1417#1 1355#9 1229#2 -263 1000 1355#6 -969#1 1355#0 161 -666#4 -979#1 -1355#10 -386#1 1416#1 409#1 950 1410#0 556#2 -636#2 -655 -1385 -1322#0 1355#5 1355#4 1362 -546 1581 946 875#2 -24 -1377#9 -270 1185#0 -1315#5 755 1325 -848#1 968 1356 767#0 1377#9 651 1248#14 645#0 -662 1494#3 650#1 -477 330 869#0 1348#0 1500 1494#1 -1322#2 445 1186 -1419#1 -1497 -820 438#0 483#6 550 982 -1355#8 -1355#7 -1316#0 1315#4 -1256#4 -310#0 993 -1248#2 1376 -379 770#0 -378 -928#4 345 1322#0 -549 753 769 -984#0 -1248#14 1377#7 -1349#3 -950 -1363#0 333 1319#1 1512 -1362 265#0 1249 -963#1 1419#5 438#3 1258 757#1 -1380#0 328 381#0 541#1 -268 1229#0 1355#3 1317#2 667#2 1419#0 -1316#3 1198#0 -1248#7 -390#3 -1350 752#2 -767#2 848#0 -652#0 954#0 899#0 825#2 -377#2 1256#3 -1377#10 1316#0 483#7 -650#0 -901 -483#4 -979#3 1355#1 -1384#1 390#3 1373#0 237 1349#0 -848#3 1256#0 378 752#1 -273#0 -384 1248#12 -1315#6 -1411 644 271 324 268 848#3 1349#2 483#0 485 -641#3 963#1 1384#2 -251 -1516#0 -540#1 -542#1 -1363#2 -544 -254 -749#0 1355#11 1377#8 653#1 263 1183#2 -539#1 -1384#3 1377#6 -751#0 -989 -1419#6 1248#5 558 642 645#2 -666#1 656 -667#2 1369#2 -1349#0 -540#2 -556#0 -1256#7 1349#4 107 1379#2 266 -266 1384#4 -1338#1 -1516#1 -982 -532#0 -769 1355#7 1379#6 392#3 -556#2 991#0 410#2 -928#6 -1377#0 -1355#0 -757#1 309 -645#2 1349#3 1248#11 -964#0 1370#4 310#3 922#2 -752#1 438#6 663 -1000 1419#9 634 990 1557 463 538#2 -1419#2 -389 668 -1248#3 -445 639#1 979#3 -1355#2 -966 1248#6 976#0 906#0 -922#3 -1349#4 -672#2 -928#2 875#5 -753 961#1 1256#2 -1379#2 666#5 995 -847 1379#3 -951 109 1348#4 1370#3 -1384#6 -1412#1 -962 286 484 -1248#13 -666#7 -1348#2 -381#1 381#1 -1379#0 -633#1 1380#0 1419#4 987 -273#1 845#1 -1355#4 -392#1 1253#1 611 -346 922#1 951 672#1 -1332#8 -1502#0 -253 -372 -770#0 1370#5 548 -1257 217 -1320 -668 768 -538#2 -764 -654 765 -558 -848#0 385 661 -751#1 760 -538#1 948 875#1 380 -1355#5 -825#7 538#0 -636#1 649 -550 -1256#0 846 343 323 -289 -1377#1 -770#1 -1502#1 1419#3 -949 825#7 -1370#1 -1370#4 -848#2 481 671 1418#2 -1373#0 965 1377#2 -1357 388 1199 -979#0 -539#0 -971#0 -325 542#1 928#5 896 26 -1349#2 -848#4 -1380#1 302 -641#0 -666#3 633#1 662 763 -1489 -1332#5 1315#3 289 -542#0 -1377#2 -653#0 -672#0 -954#3 334 -825#2 332 738 -956 -1377#5 973 1411 269#1 873#5 433#1 -286 483#3 554 1318#0 -1321 382 -653#1 -1410#0 -648 1384#0 922#4 1516#1 555#1 825#3 -483#5 1319#0 845#4 -1503 905 -483#1 1197 -670 -538#0 1318#2 303 749#0 956 989 971#1 -1248#5 1184#0 1384#6 825#1 -1248#4 -538#3 438#7 -310#2 -1256#1 -1253#0 -755 -825#1 928#6 -537 -991#1 873#1 1497 1183#1 1322#1 1375 1556 -392#0 1504 882 -967 -1379#4 -323 483#5 1248#1 -905 652#1 -660 1370#2 -993 1248#3 541#0 1494#2 -1322#3 -556#3 672#2 -768 -958 751#0 -673 752#3 -922#0 -1379#1 -377#1 -633#2 -123 310#0 -1379#6 -1581 1377#10 664 1226 1515 1371 1377#0 -485 670 483#1 264 845#2 -825#3 -1419#8 1315#0 -954#0 377#2 -96 657#0 -963#0 1315#1 -659#0 1348#1 -818#1 1352#1 1316#3 -1369#2 -559 -665 -763 -540#0 1183#0 848#2 -1316#1 534 -554 1322#4 1332#4 -1504 -642 346 -1505#0 1354#0 -945 953 -481 1198#1 538#1 331 -1417#0 974 546 752#6 -1258 -1375 960 -1384#4 -1315#3 -757#0 -639#0 -1348#1 -446 1377#1 962 825#8 -922#2 -483#6 252 -388 -1514 928#3 -390#1 -947 -345 397 -262 658 -486#0 -1361#0 1379#1 -1419#4 1516#0 -752#3 667#0 -1315#1 -1319#1 -643#0 966 640 -994 633#0 872 -373 1315#6 1332#6 -310#3 347 -730#2 -1249 -952#1 -825#5 952#1 1332#5 909 -1354#0 1384#1 -1345 -1355#3 -1377#8 -1418#3 -386#0 377#1 961#0 901 -269#2 -483#2 -976#1 637 639#0 672#0 979#1 -760 -672#1 -965 645#1 1419#6 390#0 -306#1 -641#1 96 1338#1 -1332#7 -1517 955 -1355#12 648 -556#1 -767#1 1200#0 -1512 659#1 -656 -1332#6" id="11"/>
    <taz edges="1384#5 1380#1 976#1 -770#1 -820 922#3 1505#0 928#5 770#0 -1380#1 302 763 -1505#1 1512 -762 -145 -1380#0 922#4 -976#0 303 1384#6 928#6 -928#5 762 1405#0 -1384#5 -1406 -763 -1405#0 1384#4 -1505#0 -1405#1 -928#6 844 -844 974 -1384#4 1505#1 -1514 -922#4 -974 1380#2 1405#1 976#0 -922#3 -1384#6 -1379#0 1380#0 770#1 -976#1 1406 -1385 145 820 1385 -1517 -770#0 217 -1512" id="17"/>