<tazs>
    <taz edges="" id="33"/>
    <taz edges="1604 475" id="45"/>
    <taz edges="-924 -1292 -944#0 -467 467 1292" id="34"/>
    <taz edges="902 -902" id="44"/>
    <taz edges="-1375 1375" id="43"/>
    <taz edges="" id="32"/>
    <taz edges="1391#0 -1391#0" id="42"/>
    <taz edges="1399 -1399" id="41"/>
    <taz edges="-1417 1417" id="31"/>
    <taz edges="1267#4 1037 730 1133 746 -628#5 573#1 -531#0 1533 1233#1 741#10 -1344#3 192 1094#1 745#2 -816 -744#0 593#9 1494 827#1 1093#0 -899#2 745#3 -226 811#0 590#0 530#2 1219#0 1223#2 -913#3 808#0 327#0 1182 -1352#14 -1586 -593#9 365#2 750#3 628#2 328 809 827#0 1263#0 1225 756 1073#0 -593#1 1213#0 305#2 734 -739#5 1267#2 829#1 743#0 -1335#0 -382 1039#1 427#0 -694#0 -266 -820#1 -901#0 288 -530#3 -328 695 1046#1 1129 -513#1 293#2 -1502#1 -803#0 629#0 -621#0 866#0 31#3 1180#1 -1415#0 13#0 890#7 -714#2 702#4 -638#3 -1353#2 798#3 583#2 1532 1560#1 790 716#2 -633#3 1353#2 814#1 604#1 744#0 -693#0 -901#5 531#8 596#0 794 -380#1 573#5 -1352#7 -890#7 1047 -929 624 -732#0 -914 739#3 -1501 1220#2 580#4 -633#2 -535#1 634#0 -530#0 -1587 303#1 -451#3 -754#1 1335#2 304#2 531#6 -913#1 1136 -220 513#2 593#6 -451#0 590#4 535#0 602 -378 -608 1190#0 1099 1352#12 -920 -394 1137 38#4 -829#1 814#0 -735 287 743#1 593#10 -1497#3 1453#0 573#4 187 929 578#0 1234#1 573#6 1095 -750#1 386#1 591 -1383#4 -759#1 -304#1 -1205#1 -890#8 791 -1383#2 -714#0 168 -1352#15 -716#0 -632#0 -1352#10 -1313#11 16 890#1 879 1049 -574#4 1045 295#1 22 1487#1 -721 -612#2 -741#1 601#0 -615#0 253 -309#0 38#0 -450#0 598 928#3 531#2 -596#2 -365#1 712#0 1319#5 -943#0 580#2 454#1 380#0 763#1 603#0 871#3 31#0 -293#3 1162#0 913#1 1217 -1502#3 -890#5 1075#0 1204 1345#2 -290#1 1202#1 -590#6 -293#0 867#2 1130 -723#1 -1495#2 -694#2 1231#1 901#4 -109 -1492 744#2 -599#1 612#3 751#1 -1318 1185#0 -286 304#4 -580#4 1181#2 694#1 -531#1 694#3 -601#0 305#0 365#0 -427#0 1200 1159#1 -795 1588 303#0 -596#4 37#5 743#4 615#1 -931 913#3 1183#0 594#2 873#0 -505#4 -531#4 1035#1 37#2 450#4 1232 611 -759#6 1337#3 868#3 1240#1 -289 1269 574#1 -690 693#0 1127#1 534 -871#3 741#3 741#2 -604#3 1156#0 -1352#0 -1352#1 -826#2 812 895#0 361 1017 1529 731 -638#0 -451#2 869#5 1180#2 -763#6 -506#1 631 -380#0 542 1082#0 741#1 -1491#0 736 -1343#0 451#8 753 -589 1185#1 -197 628#0 1181#0 757#1 -1494 -867#1 423#0 733 -1352#16 -718#0 505#4 1461#1 -732#2 1377 -633#1 -1261#3 -744#2 37#4 1179 691 -896#1 -1357 571 1146 1031#0 1313#11 -525 -899#1 752#1 579 -739#0 -605 -739#2 763#5 596#2 -797 -918#0 793 -726 -742 871#1 802#2 -593#7 899#0 928#8 -309#2 751#0 612#2 -251#0 868#2 -594#2 -638#1 -375 727 1383#3 596#4 904 -1319#0 -628#3 694#0 15#0 502#0 -1319#3 1012 -583#0 -710#0 878#0 609#1 39#1 600 428 712#1 -875#2 889#3 874#0 901#5 1097 -818 732#2 -748#2 -451#1 -763#1 1319#3 531#1 -1343#1 -759#5 580#3 890#2 724#0 822#1 -593#5 688 293#0 1107 936 -623 1378#2 875#0 -745#2 890#8 808#1 604#3 15#1 741#0 1240#2 1354#0 -875#1 32#0 532#1 -812 -584#0 -798#5 1160#2 -709 -590#1 367 298 1553#0 -798#4 259#0 -702#5 -702#0 -869#2 -574#2 1206#4 -786 362#2 -704 798#1 -369#3 1453#1 1455#1 737#2 -716#2 620#0 -621#1 -454#0 796 -890#6 -888 -1337#3 1597#0 609#2 716#1 1158 -745#1 295#0 -1345#2 -573#4 417 -587 -642 930 -574#3 873#1 -1352#5 -604#2 -296 451#0 -719#1 -541 1230#0 -330#1 -539 293#1 918#0 1031#1 1084#0 1090#2 -741#5 366#2 -298 510#2 -305#2 702#0 802#5 -12 -1267#3 918#2 590#3 763#2 223 1160#0 639 1206#3 404 1044 822#0 -637 -723#0 572#0 1376 -575#0 -737#1 -940#6 450#8 1206#0 451#4 268#1 310 938#0 1157#4 823#0 -628#0 1030#0 583#1 -386#0 -798#0 745#1 -223 1319#0 364#1 865 -115 604#0 -758#2 1058#0 -326 1039#2 603#4 1455#2 -593#8 -718#1 1234#0 380#1 636#2 198#0 1007 575#2 1353#0 -628#1 121 254 827#2 1157#2 -890#2 613 -694#1 719#1 -805 12 705 737#1 1156#2 -615#2 1491#3 -305#0 758#2 1221 1385 573#0 -878#0 804 -1597#1 -524 1340 255#0 424 710#1 757#2 -590#3 803#1 -600 899#4 1186#4 -574#5 1032 709 635#1 -1352#8 866#3 1233#0 -699 -580#3 190 -624 305#1 450#5 -590#4 -715 -896#0 -722#1 -1352#4 1224#0 -596#3 1594 -801#2 1497#1 -899#0 -405#1 -753 641#3 1319#1 -790 1155 -1588 -741#7 -714#1 517 1180#0 754#0 -866#3 -741#9 1335#1 798#2 386#0 1150 -823#1 623 -1495#1 -745#3 621#1 788 798#0 405#5 815#2 826#2 -11#0 1495#3 724#1 1502#4 1074 604#5 1497#3 728 636#1 -451#8 871#4 -754#0 -875#0 -787 763#3 -516 1459#0 1159#0 1055 -513#2 1357 -450#4 759#1 451#6 750#2 201 1236 -879 -1338#1 -634#0 28 743#5 1156#1 371#5 506#0 1454 -830#0 -208 589 603#3 -510#0 -711#1 -794 1602 641#1 -1352#9 289 -1502#4 -427#1 1111#4 507 919 38#3 -361 -809 713 466 384 877 1084#2 15#5 -899#4 505#3 304#0 763#0 1190#1 1570 698 869#2 -716#3 -1337#0 632#1 -641#3 805 1497#0 1009 -373 427#1 634#1 -536#0 1072 -752#0 1162#2 1352#9 747 32#2 1462 1502#2 896#1 -1376 -635#1 1094#0 1054#0 -724#1 -814#0 1075#2 451#2 638#0 -606 -800 633#1 1553#1 -1491#1 -573#3 -815#2 535#1 741#5 869#0 -585 818 626 -292 1593 33#1 1161 -603#0 1599 -304#4 -640 643 -1338#0 204 371#0 -304#0 714#0 1062 -505#1 -596#1 928#6 -580#1 1352#1 531#7 -784 1070 -719#0 -510#3 -811#1 -507 786 326 1335#3 -928#7 -329 454#0 -591 -505#3 -752#1 1184#1 -928#8 867#1 -822#1 1184#0 -755 -612#3 1157#1 864 1231#3 -580#2 532#0 -590#0 704 -724#0 -826#0 309#0 875#2 889#0 -272 -450#7 744#1 -890#11 13#1 716#4 869#1 1337#2 -526 615#2 1598 226 739#1 868#1 -703 759#6 1600 -759#3 366#1 1080 1438#3 -801#1 741#7 574#4 -580#0 -890#0 -1497#1 290#1 -603#4 628#3 801#0 689 1495#2 -629#1 -450#5 -743#4 -1319#1 450#0 1509#0 1033 -901#4 1383#4 687 539 1065 1186#0 -730 -867#0 -739#3 -532#1 -530#1 -593#2 -1314#2 362#4 -717 714#1 716#0 -758#1 -711#0 330#0 -532#0 1354#3 307 1352#8 -612#1 1352#6 1176 -1344#0 1060#1 -601#1 -505#0 -597 -1497#2 -295#0 696 642 -583#1 31#5 620#2 540#1 36#1 905 789 866#4 -10 -405#0 -18 593#5 741#11 1206#1 928#2 -741#11 1102 -293#2 1238 -1344#1 -1352#12 1149#0 524 -687 -727 697 1352#0 1111#1 31#4 15#4 -531#6 1101 -705 -531#3 -788 1053 1345#1 -697 759#3 906#4 34#0 795 450#7 604#4 -573#5 1075#1 -750#3 -928#4 1149#1 -1354#1 -609#2 531#3 368 372 -304#2 499 286 -573#1 800 574#0 -741#0 787 722#1 -1383#3 -804 -702#4 1540#1 10 526 -731 792 -502#0 -603#3 -744#3 -811#2 -269 828#0 -612#0 592 -1335#1 -366#0 -609#1 11#0 876 -450#2 293#3 595#1 -573#2 1345#0 -620#0 -763#3 741#8 754#1 -384 1344#1 -938#0 1205#0 255#3 -746 -890#4 595#0 -700 -1509#0 -936 723#1 739#5 913#4 1152#4 1162#3 816 -592 -1502#0 1560#0 36#0 266 -706 1459#3 1490#2 889#2 505#2 370#0 -330#0 1231#2 597 -1269 1314#2 38#2 411 -635#0 -869#1 -359 693#1 -603#1 -1267#1 -801#0 366#0 798#4 1038 -741#10 1240#0 -636#1 1261#3 -574#0 365#1 1015 -531#2 692 1565 516 735 572#2 -307 508#2 625 -741#2 -540#1 1048 718#1 -611 1066 505#0 -255#3 -377#2 -1380#2 109 1490#1 -822#0 824 1111#3 1157#5 371#4 1313#10 -1503 1419#7 -366#2 -743#0 1499 700 -828#1 867#0 -688 -643 -303#0 1228#0 -376 928#5 1082#1 -593#6 -531#7 259#1 -572#1 826#1 1046#0 890#11 530#3 719#0 -586#0 826#0 1054#1 1319#4 -535#0 -759#4 -595#0 1337#1 575#1 -729 1206#2 -288 -602 815#1 371#2 -918#1 451#1 412 615#0 1497#2 899#2 -542 897 1230#2 1561 1551 633#0 31#1 581 725 -538 1261#2 -877 363 512 1008 878#1 763#4 371#1 377#2 -1319#4 -364#0 -590#2 1491#0 702#5 37#3 1352#13 -579 -918#2 1502#1 -1335#3 703 -763#2 405#1 -899#3 711#1 1531 31#2 -732#1 1093#1 763#6 -743#3 574#5 1050#0 -1339 -904 758#1 1261#0 -513#0 -940#7 -803#2 -863 1162#1 706 1110 15#6 874#2 572#1 -1490#0 1252#1 -510#1 331 574#2 758#0 1016 518#1 1068 305#3 1090#1 577 928#4 1501 1059 637 291 -331 1242 -604#0 -305#3 -598 -577 -758#0 593#2 -702#3 1050#1 294 530#1 711#0 573#3 813 -1340 -763#4 -531#9 748#0 714#2 -1495#3 -363 359 -740 1213#1 290#0 -505#2 -702#2 738 -1263#1 1203 -628#4 -255#0 -1490#1 1601 -876 -294 1338#0 1344#3 -872 1352#10 578#1 1319#2 1352#11 630 -743#1 -192 -201 -744#1 531#4 802#4 -1345#0 811#1 330#1 -1337#2 737#0 906#2 -512 -810 799 1186#3 1352#15 -13#0 -610 -584#1 1335#0 -869#5 -739#1 798#5 -573#6 1227#0 -596#0 -811#0 38#1 820#1 807 -1596 -632#1 1063 1088 -368 -720 699 1013 -305#4 741#4 -576 1212 32#1 -866#2 -928#3 1205#2 868#0 -603#2 1229#0 -405#5 37#1 -583#2 943#1 -613 -628#2 -293#1 785 -291 638#3 1539 -713 750#0 694#2 603#1 628#5 -540#0 -572#0 874#1 -1267#2 -737#2 594#0 1163#2 913#0 -517 -295#1 593#11 628#4 1081 1083 1153#1 1127#0 450#6 -823#0 871#0 -1490#2 1051 510#0 -739#4 15#2 -791 505#1 1338#1 740 540#0 -370#0 541 292 702#3 1199 899#1 423#1 870 906#3 -871#1 811#2 -1354#0 755 540#2 1201 -1261#2 251#0 302 -815#0 -259#0 373 745#0 594#1 1085#1 1352#7 743#3 268#0 -304#3 237 -1493 -540#2 1207 -1597#0 -741#4 -808#0 -369#2 -827#1 -593#3 305#4 268#3 1041 -814#1 803#2 1459#1 -1319#2 -728 371#3 -1497#0 -827#0 -866#1 1157#3 -737#0 -813 1092 -691 -251#1 -533 -866#4 -1205#2 1215#1 -943#1 759#0 866#1 1535 1039#0 -638#2 1534 1148#0 1352#5 1352#3 1090#0 584#1 801#1 866#2 -694#3 1337#0 508#1 732#0 -1344#2 -641#1 584#0 378 620#1 -1502#2 -817 701 895#1 1435 1487#0 1490#0 741#6 251#1 889#4 1223#1 -527 1184#2 -734 218 527 -537 272 -510#2 -1353#1 -575#2 633#2 -750#2 -626 628#1 -748#0 376 -636#2 -736 -419 -878#1 369#3 585 -506#0 -625 197 1354#2 872 743#2 759#4 296 1223#0 -928#5 198#1 583#0 610 -405#2 1148#1 1058#2 1181#1 304#1 -599#2 1108 405#0 1157#6 744#3 -865 632#0 303#2 -458 -710#1 -750#0 -919 -741#3 -451#4 633#3 603#2 188 -303#1 -741#6 1086#1 1318 741#9 1431#0 810 -571 -374 -870 593#1 -365#2 1153#0 -1378#0 868#4 1267#1 1503 531#9 1354#1 797 863 802#3 -287 1352#16 590#5 -588 15#7 -366#1 593#4 -450#9 513#1 601#1 889#1 596#1 400 1383#5 -1345#1 -1491#3 729 1495#1 -604#4 537 750#1 -890#3 362#3 1058#1 1557 531#0 1339 1559 451#3 918#1 1152#1 -302 364#0 -575#1 605 -1352#11 1252#0 1353#1 1218 802#0 1491#1 1230#1 -454#1 1186#2 -405#3 -1267#4 -573#0 712#2 802#1 -757#1 -928#6 -871#4 -534 -890#1 -792 -796 -695 -574#1 723#0 890#6 1228#1 -1496 169 362#1 -450#6 739#4 1587 710#0 1596 1540#0 -594#0 1502#0 1186#1 -1431#0 1550 -913#4 -751#1 375 -586#1 -1261#1 1228#2 1177 586#0 394 15#3 1558 1220#0 327#1 1263#1 -620#2 1227#1 -685 33#0 875#1 -364#1 -828#0 1078 329 940#6 -121 906#1 1085#0 943#0 -1263#0 538 721 34#2 450#2 533 586#1 1147 599#2 690 604#2 -581 -604#5 -1335#2 -763#5 596#3 1229#1 830#0 716#3 1091 593#8 268#2 304#3 -1378#2 -530#2 -798#1 1073#1 -698 1165 34#1 920 -708 -386#1 1134#1 360 580#1 510#1 -897 -701 640 871#2 720 1335#4 759#5 -531#5 869#4 -815#1 -641#2 -871#2 -1419#7 641#2 1267#3 -899#5 382 1530 1352#14 1459#2 1205#1 -615#1 590#2 -826#1 590#6 -808#1 -793 638#2 587 1344#0 37#0 575#0 -1352#3 405#2 1098 928#7 1502#3 -1598 580#0 -745#0 739#2 -1353#0 -604#1 -466 -187 -400 828#1 801#2 -595#1 759#2 1211#0 -1352#6 536#0 510#3 -303#2 817 419 -716#4 718#0 -253 899#3 1216 -367 1152#0 1603 1043 1229#2 593#7 1231#0 -639 -789 732#1 1597#1 784 573#2 638#1 -696 -806 1071 1156#3 1220#1 -1354#2 -799 748#2 458 1035#0 1087 940#7 608 707 -866#0 890#3 377#0 -759#2 -1205#0 931 686 896#0 255#2 806 -803#1 1164 -895#1 1152#2 -707 -798#2 309#2 1152#3 -1352#13 914 -1313#10 525 708 726 -370#1 1261#1 -895#0 1492 -518#1 -377#0 -237 405#3 1237 -365#0 899#5 576 -759#0 531#5 1135 -913#0 -451#6 1163#0 -871#0 -590#5 -716#1 -693#1 -636#0 33#2 606 593#3 702#2 -689 1491#2 -630 35 -1337#1 1496 1586 -1499 803#0 -869#4 -631 -620#1 -757#0 1202#0 -867#2 629#1 -820#0 1352#4 890#4 -869#0 -741#8 -745#4 1343#1 1103#1 1382 1042 1089 1111#2 -785 450#9 801#3 1378#0 -372 -13#1 1069 -290#0 -594#1 -633#0 1463 1459#4 -928#2 -1261#0 685 1104 -827#2 -450#8 1103#0 -1313#12 1453#2 -593#10 269 -593#4 -204 506#1 1109 208 1460 -801#3 -751#0 1455#0 599#1 1222 -629#0 -798#3 -572#2 -305#1 752#0 -1335#4 -578#0 1096 -824 369#2 1211#1 -757#2 -733 1183#1 1226 115 -738 -725 590#1 -1491#2 1061 -1354#3 1493 374 1111#0 370#1 745#4 612#1 1084#1 -531#8 1214 574#3 588 890#5 1344#2 -255#2 1086#0 1224#1 -763#0 -743#2" id="1"/>
    <taz edges="1285 -922#0 -462 -459 467 922#1 462 459 -1285 -1284 -467 -1280#0" id="20"/>
    <taz edges="1312 -1419#3 1297#0 368 426#4 1302#1 508#1 -948 -1419#2 1419#4 921 1288#4 499 238 1320#0 1317#0 1128 501#1 -1281#1 -1296#1 485 -1290 -1301#1 93 1018#1 1548 510#2 -1258#1 243 347 -502#0 244 -1302#3 1305#0 -1299#0 1294#1 1297#1 946 1303#1 -468 1522#1 -510#2 -366#0 464 1520 -1419#6 -887 -900#1 1258#4 1019 -1524 -104 459 -1317#1 -1320#4 925#1 245 1026#0 1304#2 349#3 922#1 -1320#5 950#2 -1309#0 -1498 467 -1293#1 1294#2 -506#0 862#1 255#3 1310#4 -1317#0 1023#0 -479#3 -484#1 -903#0 1299#1 1294#4 1424#2 1449 -945 402 -1311#3 1298#0 479#2 -947 1562#0 1026#1 -1307#0 -1309#1 250#1 -1304#0 -239 -1303#0 -459 254 1293#0 -487#0 -469 -926#0 1475#0 379#0 1301#0 -504#3 504#2 -1303#1 1258#0 -240 -1306#1 -900#0 1307#3 1300#1 1314#2 -1307#1 -1255#3 -1257#2 406 -498 -482 1419#5 1311#4 1536 348 1170#1 498 -1298#0 1431#0 483#0 366#0 -1294#4 -944#0 -1281#2 -1512 504#0 1171 -543#1 1257#2 -1288#4 1424#3 -472 1475#2 1450 480 -1281#3 -479#0 1024 -927 -1424#1 1424#4 -1296#0 1258#1 1320#2 -1287#0 508#2 -252 -903#2 -366#1 500#4 -1297#1 349#2 481 903#0 505#0 -255#3 -491 1291 109 -1294#2 -349#2 1419#0 -500#2 -1294#0 1317#1 950#1 1419#7 249#0 -1306#0 -462 -924 -504#0 249#1 1294#0 1293#2 -1281#0 1289 -502#1 478#1 1419#1 473 484#1 1286#1 187 -467 1255#4 -1522#2 -486 462 -1308#0 1315 -946 -1287#1 1299#0 1310#0 1281#1 952 1288#0 1257#1 -103 -244 349#1 486 104 -464 1023#1 -1311#0 947 -478#0 -490 1522#2 -1292 1310#3 -1419#5 1488 -477 1307#0 475 1524 100 -1522#1 426#1 -504#1 -992 -1255#1 -1310#3 1255#0 1489 -1431#0 479#3 -470 1018#0 -922#0 1301#1 -1301#0 1281#2 387 1285 -1302#2 -93 23 -1314#1 1020 -950#2 1314#1 -1305#1 -483#0 512 948 949 239 903#1 -481 -1424#4 1286#2 -1288#2 1433 -1314#0 -483#1 506#0 1281#3 469 1302#0 -109 -1258#3 -500#1 -1300#0 -952 477 -1424#2 -1300#2 -1310#4 507 -1488 1288#1 1538 -347 1309#1 1308#1 1304#3 -473 1320#3 -487#1 1310#1 862#3 1296#2 1475#1 1304#4 1022#0 -925#0 1419#6 -1295 -442 -379#0 1562#1 483#1 -903#1 1483 1521 1287#2 1292 1258#2 -951 950#0 -500#0 484#0 479#5 -1304#1 -242 490 -921 -1426 -1433 -1317#2 1522#0 -500#3 1303#0 -1522#0 500#3 -1288#0 379#1 -476 -1284 -1298#1 -238 1167 1169 -1310#0 1447#1 1168#1 487#1 -479#5 -1419#7 1308#0 1294#3 504#1 -1255#2 1255#1 1029 443 -1258#2 -463 -1258#4 543#1 1300#2 1306#1 -489 1170#2 -1010 -1287#2 -1293#2 -1307#4 -504#4 1302#3 1310#2 1424#1 -387 -1299#1 -1312 -506#1 -480 -1286#0 1296#1 -187 -500#4 -23 -988 -510#3 -925#1 -507 -1256 1151 426#2 -348 1304#0 1288#3 500#0 1300#0 -1419#4 103 1256 951 1305#1 510#3 1306#0 -349#0 -485 1168#0 1132 -1315 -926#1 988 1255#3 1027#0 1258#3 209#0 -1300#1 -512 1025#1 900#1 992 479#1 1320#5 -950#1 -1302#0 1419#2 1027#1 -1310#1 -504#2 -1313#0 487#0 -1310#2 1010 1287#1 242 500#2 1293#1 -1424#0 -1304#2 -349#3 252 463 1028 489 -368 500#1 240 -479#6 1311#1 927 1025#0 -1288#3 -1489 1317#2 366#1 1290 479#6 -1294#1 502#0 -1308#1 -406 1431#3 1512 -1424#3 502#1 1288#2 1307#4 -1291 -349#1 1287#0 1304#1 -379#1 -954 1448 1131 -1419#0 900#0 472 903#2 1022#1 1302#2 1320#1 -1302#1 -1294#3 -504#5 -1304#4 953 1021 442 1311#3 470 -1322#4 -100 -479#2 1286#0 1424#0 504#5 491 -1257#1 -950#0 -949 -1286#1 1314#0 1498 -1520 1311#2 1313#0 -1314#2 -245 1296#0 -1419#1 944#1 -1320#0 349#0 -1293#0 -1280#0 -243 -1311#1 -1305#0 1255#2 1281#0 506#1 426#3 -1320#3 478#0 862#2 -479#1 926#0 -991#1 -1255#0 -505#0 925#0 -249#1 -1257#0 1320#4 209#1 -1320#1 -1297#0 -1311#4 241 -1311#2 -484#0 1307#1 -1304#3 482 -1258#0 1447#0 -1296#2 -1521 -1255#4 471 -1289 -1431#3 -241 -953 954 -1288#1 -402 468 504#4 -1307#3 -471 -249#0 -1320#2 926#1 1475#3 -501#1 862#0 1298#1 1309#0 504#3 -443 -478#1 1419#3 -1285 1604" id="14"/>
    <taz edges="-1281#0 1286#2 -1282 1281#0 -1279 1279 -1275 1280#1 -922#0 -1277 -1280#1 -1426 1278 1275 1277 -1278 1282 -1280#0" id="19"/>
    <taz edges="1432 1276 -1276 1275 -1275 -1432" id="18"/>
    <taz edges="-574#3 -928#4 1595#1 1090#0 1037 873#1 -1352#5 -1341 -1354#1 -1360#1 -548 -1326#1 -609#2 1133 444#2 531#3 -531#0 1323#5 1323#1 573#1 1337#0 617 866#2 1134#0 962 907 -1349#6 -1344#3 607#1 -1344#2 -573#1 1326#1 -651 1128 -1326#3 574#0 1031#1 1351#3 -1343#6 1090#2 620#1 990#0 1384#0 1361 -970 -1262#0 -26 895#1 1435 1208 1351#2 1548 -350 644#1 -1343#3 -1381#3 -1343#4 1326#5 1379#1 741#6 530#2 -1359#6 1379#6 -1386 223 1076 1537 656#0 1349#9 1388#5 1194#2 1474#2 1323#4 523 639 -269 455#1 -1263#11 -612#0 1349#3 1434 1173 -652#2 1592 1192#1 -1434 -1335#1 -646 -1354#5 130 -1353#1 -1352#14 -637 1312 -609#1 1313#6 628#2 1263#0 572#0 633#2 1067 -626 1376 1073#0 628#1 756 917#0 -573#2 -636#2 1026#0 997#1 1345#0 1263#11 1349#8 -1320#5 -620#0 -1504 901#1 -1326#4 622 -739#5 741#8 -1313#1 -1381#0 1349#6 1388#10 522 -1335#0 895#0 -628#0 1187#2 1344#1 1030#0 -1380#3 997#0 1039#1 1354#5 -625 -746 427#0 1343#6 -694#0 1262#0 972#1 1362#3 -223 1319#0 -658 1139#1 1263#5 -901#0 1378#1 1354#2 -530#3 364#1 -115 -1388#1 407 530#3 -903#0 -1509#0 -936 -955#1 444#1 1058#0 636#2 1360#4 1039#2 -901#1 414 557 1438#0 357 739#5 974#1 1326#6 1455#2 -621#0 1342 1474#1 658 764 -928#5 1267#7 -1322#1 -1331 1007 1562#0 380#1 1353#0 -628#1 -1388#8 1381#2 1026#1 610 -405#2 -514#2 861#3 -1307#0 -518#0 1058#2 866#0 1343#7 -1313#2 148 -487#0 257#1 -553#0 1040#1 -990#0 1351#5 1459#3 1474#5 -1351#5 613 -458 -1359#5 1388#4 1387 1381#1 -1353#2 655 981 -971 1263#7 411 -217 1381#3 1423#0 455#0 1263#9 -635#0 1195#1 1313#2 -1430#8 -741#6 -1262#1 -211 -1388#5 -981 1086#1 1318 1353#2 1552 19 1166#0 741#9 1431#0 1343#2 657 1554#0 -627 -916 547 1166#1 -870 1385 573#0 -1381#2 -1343#5 -1388#2 -24 1038 -741#10 -901#5 531#8 -1597#1 -1378#0 -380#1 573#5 276#0 -543#1 -1352#7 1569 1047 -636#1 -929 1340 -1359#7 531#9 1473#0 618 651 647#1 739#2 965#2 1261#3 1354#1 -1313#9 -574#0 1138 -1263#8 1034#0 624 -531#2 -1359#1 1313#5 1388#3 261 739#3 516 1352#16 1451 1381#4 572#2 -543#0 -633#2 625 -535#1 1036 -1263#9 634#0 1343#4 -540#1 1196#0 -530#0 -514#3 349#2 -574#5 1032 645 -1261#5 -1388#6 1066 1359#0 -1345#1 635#1 1335#2 554 903#0 -1352#8 -1592 -1358 -1380#2 -962 -1343#2 1058#1 275 362#3 531#6 -652#3 1343#8 -349#2 1458#1 866#3 860 974#0 -1349#0 1136 531#0 -928#0 1339 1381#0 535#0 1313#10 1438#1 1452 -608 -624 1190#0 415#0 1194#1 1352#12 -1360#0 1431#2 -1388#10 955#2 1137 647#0 1384#1 -455#0 1499 364#0 1323#2 1478 1056#0 511 -1352#4 593#10 1380#2 -1497#3 1453#0 605 -652#0 955#0 573#4 1326#0 187 -1347 1360#1 1594 1175 929 578#0 652#2 1388#7 1497#1 -1352#11 -1308#0 -405#1 -519 1077 573#6 928#5 1322#2 -1320#7 -1349#1 1313#3 1319#1 -1351#3 901#3 -1263#7 -741#7 1322#0 1353#1 -256 -531#7 1347 1263#8 1457#0 1259#12 1323#6 -1507 -999 1322#3 349#1 259#1 517 -572#1 -522 -405#3 -552#0 1323#0 -573#0 514#5 712#2 25 -1261#4 276#1 -866#3 -1323#1 -1388#11 1191#0 -1352#15 -455#2 -741#9 1388#0 168 -1352#10 -757#1 -928#6 -1313#11 -871#4 1335#1 -907 1590 1359#6 -574#1 -1354#4 1567 -1360#3 -555 1030#1 1049 362#1 1307#0 -574#4 1054#1 1141 -535#0 1319#4 26 623 1337#1 739#4 965#0 973 22 621#1 -992 -1323#0 1596 -612#2 405#5 -1431#1 -1379#2 -1430#7 -1431#0 964 1550 972#0 555 396 928#3 1388#9 531#2 1074 712#0 1319#5 1431#1 -943#0 -1261#1 -389 -652#1 -1349#9 412 1497#2 1052#1 1497#3 1177 1056#1 380#0 444#0 636#1 728 -542 871#4 1558 -901#3 -1425 871#3 -516 1459#0 -1320#6 1507 1551 633#0 -972#1 1263#1 1322#1 1055 -1590 1320#7 -620#2 1261#2 -1422 1356 1075#0 1187#0 1345#2 1357 363 -990#3 512 1064 1326#4 358 656#2 -1379#4 -1338#1 -634#0 28 -1319#4 -364#0 -1388#0 545 514#2 1437 -364#1 -1322#0 1454 -644#1 901#4 1197 1352#13 612#3 -1349#8 -1318 1461#0 -1379#5 1602 641#1 -1335#3 943#0 -1352#9 -860 1379#5 -1263#0 -427#1 405#1 416 1436#1 -1381#5 -1259#12 -531#1 1326#3 521 -361 533 389 -427#0 1386 -997#1 -1263#5 520 861#1 -1431#2 1362#4 574#5 1380#0 -1335#2 -487#1 990#1 -997#0 -1351#4 -1349#7 1100#0 970 -1339 -1379#0 505#3 -1349#3 1261#0 -931 1190#1 -513#0 -1313#7 -1313#6 1570 -277 519 -648 1595#0 -1346 -990#1 -1337#0 1034#2 -505#4 873#0 874#2 572#1 1100#1 1497#0 -1313#8 -1263#4 -1378#2 -531#4 1100#2 1343#5 1035#1 928#6 -530#2 -1348 -1313#5 1073#1 -647#2 1349#2 -1356 427#1 1165 574#2 634#1 -536#0 1178 1072 1193#0 1352#9 1474#7 1362#2 -1351#1 1462 1554#1 616 -1376 -1388#4 -635#1 1458#0 1134#1 1054#0 1016 518#1 1509#1 -991#0 1068 656#1 1060#0 -357 1090#1 928#4 1075#2 1337#3 -764 1313#14 871#2 1059 560 637 861#0 638#0 720 -606 1335#4 273 892 -1349#2 -557 -531#5 633#1 546 574#1 1553#1 -520 -1359#2 1313#4 -1323#3 -969 1425 -547 1546 -871#2 487#1 30 -573#3 -1509#1 1308#0 -521 1380#3 561 -871#3 530#1 535#1 573#3 1352#14 -120 1459#2 211 1359#1 -1362#4 626 1593 901#2 -1387 -1352#0 -1352#1 -647#0 -260#0 1343#3 1359#5 -1313#4 1473#1 361 1599 -1340 -657 -1324#0 1017 1422 514#0 -531#9 514#1 514#3 543#1 638#2 968 -363 965#3 1263#10 1344#0 -1338#0 -489 1456 -617 1188 -1352#3 1052#0 -638#0 -1359#0 405#2 1062 928#7 -514#0 -1312 -740 -1598 -257#2 -274 1430#9 -955#0 1549 -1263#1 120 -553#1 1352#1 -1353#0 -380#0 1351#4 1381#5 -956 1355 444#4 1466 531#7 1070 -187 -1343#0 -1384#1 1430#7 171#0 -148 -25 644#2 -273 455#2 1601 558 965#1 -968 1338#0 1436#0 1388#1 1040#0 1321 -1360#2 1335#3 1344#3 935#1 -1263#2 -1359#3 628#0 1352#10 1079 -928#7 1181#0 553#1 578#1 1388#2 -1352#6 536#0 746 -1388#7 1189 1319#2 1352#11 757#1 -395 -1323#4 -505#3 1261#4 1313#7 -928#8 257#2 955#1 -349#0 -656#1 1350 -955#2 -1323#2 -1380#1 -965#3 1034#1 1313#13 -1362#3 515 1140 444#3 -1352#16 -544 1263#2 505#4 531#4 -612#3 1262#1 -1345#0 -1380#0 1461#1 -1322#3 1377 -633#1 1195#0 -1261#3 1603 1194#0 1324#0 1349#0 -1337#2 -512 1457#1 -639 1057 1360#2 1352#15 1508 1597#1 -610 573#2 1071 638#1 992 -1357 1423#1 1268 1335#0 -1354#2 619 1320#5 1341 1313#11 1031#0 -525 1464#0 458 -739#1 1035#0 -1313#0 1266 -647#1 -605 -739#0 -739#2 1348 487#0 608 -866#0 257#0 -573#6 999 -1263#6 989 -515 1320#6 -1379#3 -742 1210 871#1 931 1192#0 -1361 -895#1 -1378#1 -1596 -901#2 1063 647#2 928#8 1337#2 489 1349#7 991#0 -720 739#1 -1326#6 1324#1 1598 518#0 -1388#3 -1352#13 612#2 -1313#10 -1351#0 1263#4 -616 525 -866#2 -1351#2 -928#3 1325 1380#1 -638#1 -895#0 1261#1 1388#8 1379#3 -1508 652#3 -518#1 1600 405#3 -619 -560 -405#5 1438#2 -276#0 274 -257#1 -614 943#1 -407 -613 -628#2 1438#3 -1319#0 694#0 542 -1268 -965#2 -1359#4 1346 217 1431#3 -1319#3 861#4 -514#4 990#2 1539 531#5 1263#6 609#1 1135 -1267#7 1359#3 574#4 -1497#1 741#7 1349#5 -455#1 -871#0 -349#1 1465 712#1 -540#0 -1379#1 -1381#4 -572#0 -636#0 -955#3 1351#1 429 606 874#1 -260#1 1453#3 29 -1379#6 916 -1362#1 1359#7 1555 -1319#1 514#4 -656#2 901#5 909 990#3 1504 -517 969 971 593#11 1319#3 1193#1 548 -1337#1 627 552#0 -514#1 -1499 -1360#4 871#0 1509#0 -1343#1 1033 1326#2 -901#4 531#1 -757#0 -1343#7 -620#1 1051 607#0 648 -622 260#0 -974#1 -1355 -739#4 1313#1 -1323#5 1352#4 1313#9 -558 1338#1 1065 740 -1343#8 540#0 -623 -1326#5 552#1 936 -1322#4 -741#8 1343#1 1379#4 1382 1042 1351#0 1378#2 1378#0 955#3 -739#3 1388#6 420#0 1069 -530#1 -633#0 -545 1459#4 1388#11 -928#2 1360#0 1463 -1261#0 1313#0 1354#0 -554 362#4 870 -717 -656#0 -871#1 -1354#0 1313#12 -1313#12 -1349#4 1453#2 1464#1 -593#10 349#0 540#2 544 -644#2 1313#8 1259#11 260#1 -1261#2 -276#1 269 -1325 1052#2 956 -1313#3 -990#2 652#1 -259#0 -546 -935#1 1354#3 -1326#2 1553#0 1001 1352#8 1359#2 -1342 1352#7 259#0 -612#1 1352#6 -552#1 1460 1322#4 1176 -991#1 1379#2 652#0 -1344#0 -561 1060#1 -540#2 1455#0 -1597#0 614 -574#2 362#2 -965#1 1349#1 420#1 928#0 -1497#2 -618 -892 -572#2 1362#1 1453#1 1349#4 -1335#4 -974#0 1455#1 -1383#0 -578#0 642 620#0 620#2 1568 -621#1 540#1 1474#6 866#4 -1423#0 -1423#1 -1326#0 1041 -1266 -1381#1 -1337#3 -523 1459#1 -1384#0 -1319#2 1430#8 1474#4 -1431#3 -1259#11 115 1597#0 -1497#0 1360#3 1474#0 660 1191#1 928#2 -1263#10 1331 991#1 1061 1139#0 1261#5 -1313#13 -1344#1 -1352#12 -1324#1 -866#1 -1322#2 1323#3 413 609#2 -1354#3 -1362#2 -965#0 1547#1 -972#0 1352#0 1187#1 -358 612#1 1359#4 -1345#2 861#2 277 -531#6 -973 -533 -1388#9 -573#4 -866#4 -257#0 -531#3 -531#8 171#1 1053 -1349#5 1345#1 -1313#14 -943#1 1474#3 866#1 1547#0 574#3 1344#2 1535 -1350 -642 1039#0 1354#4 -638#2 1534 -573#5 1086#0 415#1 -396 -1321 1352#5 1352#3 1075#1 917#1 930" id="13"/>
    <taz edges="-234#4 -840#1 819#1 1418#1 1407#0 846 801#1 -1403 -1415#12 1406#0 -235 -234#2 835 1585 1518#0 -833 -1415#5 -1502#2 -1407#1 -741#0 830#1 -825#1 1487#0 -1366#0 1246#0 1440#3 -1003#1 1145#1 1124 1543 1415#27 1467#1 827#1 10 -311#3 1471#1 940#1 1116 1241 1415#1 -840#4 -1415#20 1415#21 218 680 -830#3 1122 853 1506#0 1415#3 828#0 1516#0 -849#1 -913#3 822#0 -385#0 1415#2 1142#0 827#0 1544 1470 -911 940#3 -940#6 1479 1401#2 -1418#7 310 -1404#1 1415#6 -234#8 -1401#0 1247#0 -830#8 1415#7 829#1 938#0 823#0 -783 -938#0 -1415#19 1477#0 124 -820#1 819#0 -1418#3 1591 838 -830#6 1105#2 1129 849#1 -1392#1 -326 -385#1 -1415#8 -1502#1 -821#1 1418#11 -1401#5 913#4 938#2 1414#2 1418#7 1563#1 -1418#0 1415#23 825#1 -1409 830#5 -1502#0 -915#0 1393#1 827#2 234#7 -1418#6 -1415#0 -316 315 1443 -1394#0 -819#1 -1269 -919 840#8 -1418#1 385#0 1556 -234#0 -303#1 1468 814#1 14 1415#24 1527#0 -1415#11 -1415#9 1409 1274 825#0 -1527#0 -801#0 915#0 942#0 -1415#24 -1393#0 840#2 -317#3 1240#0 -1412#0 1481 1503 -311#2 1414#1 841#1 -1415#16 -830#7 1563#0 -830#5 -914 1418#3 -819#0 -1501 -307 -848#1 234#2 -1582#0 1404#2 -1404#3 1405 848#2 303#1 840#0 -1418#4 1476 847#1 -839#0 1006 1383#5 317#2 -1392#0 -1404#0 840#1 -1418#8 1472#0 -822#0 -913#1 941#0 -840#5 -830#2 -1411#2 1243 -220 854 -234#10 1414#0 1545#1 -1503 -830#1 -1510 1415#17 -920 1142#1 -1404#2 -1415#21 -829#1 1117 131#1 1404#3 234#9 -1415#17 844#0 1519#0 -124 -828#1 1564 867#0 836#8 -303#0 -1405 -837 -801#2 1542 832#1 -680 -1411#1 1125 1272 1518#1 1408#0 839#0 1403 -1528 126#1 -938#2 1415#16 1247#1 -454#1 826#1 311#0 -234#7 -848#2 1418#5 1415#25 830#3 826#0 -1418#11 234#0 940#0 -832#2 -851 1510 -823#1 234#3 -1411#3 1487#1 -1591 -850 1393#0 1440#1 815#2 826#2 815#1 1502#0 -1414#1 317#3 -312 -309#0 306#1 385#1 830#4 -913#4 -1415#25 1119 762#1 -317#1 316 1411#1 454#1 -1527#1 234#10 1407#1 840#4 913#1 -835 -1502#3 832#2 850 783 -846 1236 -940#4 -1005 -1412#2 830#8 -832#1 1485 867#2 1130 1366#0 1121#1 351 -828#0 329 -830#0 -1412#1 -1418#9 940#6 940#4 1402 -840#7 906#1 -825#0 -1271#0 1413 -1274 1502#1 1415#9 942#1 919 1415#8 -841#2 1527#1 -940#5 1271#0 823#1 1445#1 317#1 303#0 -234#1 1145#0 938#3 1477#2 -1415#3 1440#2 -845 1415#10 -317#2 1484 -904 -1406#0 -1410 1114 830#0 913#3 -940#7 -938#1 1401#5 234#6 -1412#3 -940#1 -311#0 1244 1415#20 1106 1477#1 1410 1126 1248 842 -840#0 -1525 -1408#1 1009 -126#0 940#2 -1402 851 1502#2 308 920 1415#13 360 834 -1415#2 1501 -1415#10 1240#1 830#6 1242 1269 847#0 1392#0 -815#1 1404#0 -849#0 1415#11 1120 -1516#1 829#0 -847#0 1412#2 -1394#1 -219 -815#2 1408#1 1412#3 1401#4 -842 818 848#0 1469 -1516#0 -826#1 -826#2 1404#1 1416#1 1526 1251 1415#5 1441 204 -844#0 306#0 841#0 -840#3 1502#3 -941#1 823#2 1249 1482 1392#2 -234#5 845 -838 1123 1239#0 219 -1526 828#1 833 1112 1412#1 801#2 1471#0 326 -825#2 -942#1 837 1105#1 -834 -329 1401#3 454#0 840#3 -1003#0 1563#2 -867#1 -1406#1 867#1 -822#1 1389 -915#1 1563#3 1411#2 1250#0 -1416#1 1589 -940#3 1439#1 1229#2 906#2 -821#0 -938#3 839#1 -1393#1 1412#0 -1415#18 -1415#1 -826#0 830#2 1146 -1401#4 309#0 940#7 -1415#6 1516#1 941#1 1418#2 820#1 -1415#27 1440#0 915#1 309#2 848#1 -309#2 914 -829#0 -1401#3 -1271#1 1407#2 234#4 -832#0 1400#1 1418#4 234#1 1480#1 1237 1254 841#2 904 -941#0 -311#1 -801#1 1105#0 1406#1 306#3 1541 -913#0 1519#3 1418#8 801#0 1477#3 311#2 311#3 126#0 938#1 1444 913#0 -818 -234#3 -1415#7 832#0 1394#0 311#1 -823#0 1412#4 -840#6 1518#2 -841#0 1439#2 -126#1 -867#2 822#1 1144#0 1519#1 1415#12 1415#18 -853 -762#1 1143 -867#0 1418#6 -1414#0 1480#0 446 -234#9 -1273 741#0 -315 1415#26 1506#1 -827#2 -840#2 1418#0 1401#1 906#3 1235 -942#0 1113 -1415#26 -940#0 849#0 -1407#0 1014 911 1471#2 821#1 -823#2 -815#0 -830#4 840#6 -204 -1418#5 -317#0 307 1154 1442 1439#0 1003#0 -848#0 1415#19 1392#1 -1413 1519#2 306#2 -839#1 -1418#2 312 -1401#1 -1389 -1400#1 840#5 1467#0 1239#1 -827#1 -1401#2 -1272 -454#0 1566 905 -888 -234#6 1250#1 -814#1 -940#2 -1415#13 -10 1401#0 -1408#0 1118 1418#9 1003#1 940#5 -827#0 -840#8 -1414#2 830#7 825#2 -351 1517 1246#1 -854 -1407#2 -841#1 1394#1 1271#1 234#8 -1411#0 -1415#23 -308 1273 1545#0 234#5 -847#1 1115 1472#1 1144#1 1446 840#7 1411#3 1445#0" id="12"/>