<tazs>
    <taz edges="" id="33"/>
    <taz edges="1593 464" id="45"/>
    <taz edges="-1281 1281 456 -456 -913 -933#0" id="34"/>
    <taz edges="891 -891" id="44"/>
    <taz edges="1364 -1364" id="43"/>
    <taz edges="" id="32"/>
    <taz edges="-1380#0 1380#0" id="42"/>
    <taz edges="-1388 1388" id="41"/>
    <taz edges="-1406 1406" id="31"/>
    <taz edges="-11#0 -439#9 -712#1 -743#1 383 -631 -1480#3 -1324#3 1326#1 -352 1442#0 499#0 618#0 1022 215 389 -929#7 1153 -734#4 -366#2 -1341#9 1481 -562#3 -1250#1 355#1 817#1 -560 632 1341#3 -365 -291 -724 -356 1202#0 1308#5 -569#3 -287 879#3 -890#0 -852 1078 -1256#3 1145#3 -577 787#1 1039#1 593#4 348 -886 855#2 -1341#6 1061 -13#0 713#1 439#4 -731 1326#3 1034 723 -579#5 -494#0 -888#5 -691#2 1024#0 592#1 -562#5 -790#0 734#3 1324#4 1194#1 747#0 917#8 592#4 -520#6 292#1 -294#3 -282#0 683#2 1033 1075#1 -784 682#1 -879#3 -774 -506 -747#2 694 -888#0 -1492 -708#0 691#5 1019#0 360#1 860#2 -604#0 -588#1 1341#10 -18 -707#1 572#1 683#1 1256#1 -699#1 351#3 -879#5 -495#0 -697 1211 594 879#8 1590 1175#1 -294#0 1203 617#4 -691#0 582#7 -625#2 255 -572#0 293#3 -1491#1 590#0 -570 1333#3 895#2 1219#0 1151#2 -525#0 1328 929#6 562#4 -564#1 -888#4 744 -816#2 1365 359#1 -584#1 579#3 -519#0 565 1195#0 714 -285 -813 -561#1 358#2 -298#0 1205 -521#1 -569#1 -788 -621#0 888#3 1064#0 -575#0 -575#1 -885#0 -787#1 292#0 -777 -783 728#5 -609#1 917#6 -440#2 -855#1 366#2 -439#6 592#3 -1498#0 439#5 752#0 627#3 -698 -732#3 -888#1 -752#2 1081 375#1 440#8 617#2 394#0 752#4 1229#2 -793 -562#4 807 -524#0 563#4 815#1 -354#1 -734#0 707#0 1144 507#1 -585#1 257#2 683#0 -617#2 920 521#1 1168 349 -696 412#1 1444#2 733#0 812#0 1035#0 -499#0 316#0 728#4 -1256#4 -1480#0 -721#0 1031 -804#1 563#1 -296 -416#0 364 1059 1204#1 863#2 -866 1212#2 1142#0 567#0 1542#1 242 -1341#12 -683#2 -734#1 1518 394#5 1074#0 -593#4 712#1 -369#1 -619 439#0 351#2 -590#1 -699#0 -293#2 497#2 617#1 1241#0 1147 279#0 584#1 -1334#0 1087 879#11 -1420#0 1073#1 -1194#0 788 -358#2 -708#1 -902#1 721#2 -890#4 1077 -799 -244#0 1047#1 809#1 520#7 -1486#1 740#0 -703#2 -1332#1 -733#1 593#2 367 730#9 1341#12 932#0 721#0 -292#2 815#0 691#0 -752#4 -440#6 1072 890#5 -244#3 -700#1 593#5 1146#6 365 1215 601#3 681 -447 -700#0 -864#1 811#1 520#0 1222#0 -630#2 506 -740#1 -908 794 -261 748#5 -678 855#4 1482 158 16 712#0 -618#0 -564#0 1082#1 564#0 907#1 726#2 879#1 -1346 563#2 1082#0 294#4 -281 790#3 582#8 -627#2 592#0 -624#1 1060 563#0 -592#4 1063 -363 529#2 496 -748#0 1491#1 -582#1 -507#1 1476#0 789 1341#15 10 -728#4 -591 -193 791#0 -572#1 1071#0 -1341#15 711#1 -812#1 28 -592#3 1442#1 -630#3 1170#2 -858#2 593#0 505 15#1 -917#8 701#2 1195#3 1194#0 499#2 -439#4 1226 621#0 725 360#5 1252#0 -688 1216#0 1343#1 1367#0 -907#2 1575 439#9 -521#0 800#0 818#1 -694 -867#0 627#2 1479#0 519#3 -1479#0 -408 240#0 1452 -709 -520#2 1067 316#1 -520#1 -743#0 929#7 440#2 -1341#10 893 -815#2 1550 -614 593#1 -561#2 909 1341#11 793 -242 -294#1 293#4 110 917#7 -1326#1 1175#3 739#2 -728#5 226 -610#0 1479#2 1542#0 406 619 -574 579#6 -803#1 1522 863#1 13#1 1488 -1326#2 -12 -705#0 -809#1 1256#4 1092#0 803#0 1173#2 1220#3 572#0 582#6 1208#0 631 1219#1 -803#0 -858#0 1213#1 1218#1 862#0 -711#1 -727 878#0 -703#0 860#4 -917#5 560 1220#2 718 287 867#1 531 705#4 1146#1 888#4 719 1191#0 495#1 1141#4 795 569#2 -787#5 -682#1 734#2 858#5 276 -918 895#1 728#1 502#2 -576 -798 373 -858#1 903 -1333#1 587 -604#2 1028#1 -739#2 1223#0 439#8 1227 629 737#0 -728#0 -601#0 -867#1 861 879#4 1193 -1486#2 187#1 695 -582#7 630#3 -375#0 858#2 -593#3 528 997 -502#1 1225 -730#4 1200#1 -320 -932#0 -691#5 371 1139 -715 1324#2 1096 1125 176 1201 562#1 -563#0 585#0 -802 -929#6 -705#1 783 1326#2 1076 1342#1 -520#0 1341#9 -812#0 884#0 -284#0 -1482 -98 -746#1 779 886 -690 748#0 282#1 -739#1 801 296 526 -209 773 1148#0 1450#1 -632 -1326#0 15#6 -790#3 569#1 1529#0 -563#1 1192 686 -383 -353#0 1346 -686 -879#8 609#2 -909 568 -1329 785 354#0 283 1302#10 703#1 519#2 -592#2 -775 572#2 -778 579#2 1374 784 13#0 -811#1 864#1 -416#1 1327#1 787#0 -730#6 -491#0 1138#1 -773 724 792#0 817#0 -730#9 1026 -713#0 748#2 1222#1 -776 1486#3 878#3 1209#2 863#0 1554 1484#3 -1252#1 -1367#0 -317 1052 520#1 703#2 1175#2 581 705#0 530 748#6 1141#2 733#1 1480#2 878#4 1448#4 857#2 -800#0 525#0 -805 1136 -604#1 -683#3 -1586#0 -748#3 1484#1 734#4 523 1218#2 -683#1 244#0 747#1 -730#8 394#1 746#2 1145#0 1151#1 1332#1 -568 -244#2 369#0 1188 1024#1 1141#3 925 743#1 -580 -860#0 -718 319#1 813 602 1171 799 -1308#3 -742 416#0 -617#0 -588#2 1020#1 -879#6 1058 888#2 -375#1 -1342#0 -519#3 622#2 -879#0 727 752#2 -276 878#1 690 298#0 1372#3 -1324#4 1342#0 1057 187#0 1480#0 617#5 1028#0 1169#2 1366 -621#1 1170#0 521#0 798 -582#2 -735 -925 907#0 351#1 -319#0 -594 -582#10 -780 440#6 855#1 284#0 -585#4 353#0 601#2 -1486#0 677 -855#2 1449 455 -790#1 582#2 1341#5 582#3 -523 285 -226 734#1 -1343#0 -1585 257#1 1146#2 748#1 1151#3 -582#9 1097 1523 576 -593#1 1334#2 1149#2 -515 730#6 -719 1196 739#1 811#0 1119 -864#0 298#2 366#0 351#4 804#1 579#5 -355#2 -1480#2 856#2 -682#0 -785 705#3 1137#0 1588 212 1444#0 1546 -674 708#0 -561#0 569#3 582#1 -1341#0 700#1 1480#3 -528 15#4 562#0 -609#2 1324#3 868 741#1 996 416#1 919 -366#0 1210 583#2 1591 1152#2 257#0 -787#2 859 735 908 590#1 360#2 676 -579#1 -181 787#4 780 1051 1334#0 1035#1 -726#1 -816#1 1202#1 -733#0 703#0 1092#1 1179#1 -1302#12 275 -1491#0 -622#3 1190 -278 -703#1 687 -685 1170#1 902#3 585#2 363 856#0 879#5 -627#3 734#0 1169#1 -1333#2 1032 -569#2 -582#6 -292#1 746#1 -818#1 294#2 -1369#2 858#1 1122 1250#1 -364 613 -592#0 299 1118 715 -795 730#5 -1324#2 -1341#1 857#4 580 413 440#3 -815#1 394#2 -684 786 1004 1520 -752#3 902#1 1037 -1480#1 -373 857#1 -739#3 -730#2 582#9 -855#0 561#1 -752#5 15#3 1169#0 1444#1 854 -255 -629 -248#0 1586#1 730#4 -282#2 -790#2 -859 -258 -583#2 257#3 585#4 -1408#7 -624#0 -734#2 741#0 1491#2 -579#6 620 1476#1 688 601#1 699#1 -1252#0 -917#4 1333#2 -1372#3 564#1 710 -1479#2 1219#2 566 -563#3 573#1 623#1 792#2 615 628 1055 726#0 279#1 278 729 796 1250#3 1154 1303#2 -1483 722 520#8 -622#1 -1341#3 -744 -579#2 -573#0 186 562#6 610#1 -277 604#1 1342#2 1020#0 1217#2 792#1 -792#2 -215 -1256#2 516 -627#0 -710 -903 -394#0 -494#2 865 -819#0 -527 1075#0 240#1 -1367#2 627#0 678 -676 -531 -599 -858#4 447 742 -927#0 497#1 866 1341#6 -705#4 747#2 -601#3 -720 -505 1135 -1491#4 320 564#2 569#4 1483 -282#3 1206 -582#4 679 -1484#3 1194#2 1146#5 369#1 800#1 721#1 -716 -494#4 -705#3 685 806 -593#2 894 624#1 1372#4 1329 319#0 609#1 293#2 -530 -496 356 1216#1 -1341#13 502#1 1044 -315 -440#4 1343#2 858#4 394#3 -884#1 622#3 862#1 -1491#2 352 -579#0 888#5 716 732#2 1539 -513 1220#0 -601#1 1138#0 -1250#2 -394#2 1585 -811#0 732#5 -564#2 -293#1 -728#2 -877 -734#3 -786 -1194#1 -514 -868 -792#0 705#2 -519#2 -565 1091 -907#1 494#0 790#2 -730#7 787#3 1521 1083#1 1175#0 -1341#7 -362 787#2 -787#4 494#2 -617#3 513 579#1 -615 1209#1 860#0 1587 737#2 494#3 -733#2 -1334#1 1069 -563#2 -585#0 573#0 604#2 -1308#4 691#2 927#0 -865 800#2 1126 819#0 -807 860#1 -353#1 1195#1 -1481 739#3 -212 -691#3 499#1 1231 -730#3 816#0 293#1 -932#1 709 350 1324#0 -358#3 -584#0 693 -1328 728#3 1547 1173#0 884#1 408 1165 1442#2 680 604#0 -1333#0 -579#4 499#3 -679 181 1074#1 888#0 294#1 -292#0 1519 -566 -620 -917#7 355#2 -630#1 1586#0 1005 -318 1036 258 623#0 -726#2 -440#3 578 -355#0 -1308#0 -294#2 -1576 1333#0 -782 -797 293#0 932#1 -371 -729 -1324#0 -920 -622#0 -602 1039#0 682#0 359#0 -864#2 595 609#0 -298#2 598#1 354#2 -748#1 713#0 -748#2 -879#1 1073#0 -748#4 1491#4 885#0 736 -1327#0 -319#1 1217#0 524#0 612 -888#3 1448#2 -1404#0 730#0 -725 701#1 1172#1 752#1 617#0 570 1070 494#1 1582 -563#4 -817#1 1149#0 730#7 743#0 -879#7 -1302#10 579#4 599 1064#2 -917#6 630#2 -730#1 689 791#4 -439#7 1220#1 248#0 582#11 -495#1 177 1062#1 -1341#8 -752#1 -1484#2 -240#1 -389 791#1 -721#1 1064#1 860#3 -520#3 -1341#14 -739#0 318 -562#2 -562#1 696 -687 583#1 739#0 740#1 519#1 -855#3 775 -885#1 1079#1 1099 998 1341#8 291 902#4 1490 1151#0 730#2 393 -499#3 1229#1 -361 -907#0 1486#0 -612 815#2 -856#0 15#5 1048 732#0 -1324#1 -1488 -1326#3 440#1 1047#0 -13#1 852 280 11#0 879#2 -860#4 1427#3 -10 -562#0 -589 -695 -240#0 816#1 1021 600 864#0 778 -1341#16 879#6 728#2 -197 1302#11 -792#1 -728#1 -741#0 1420#0 400 294#0 -293#0 439#7 -702 917#5 691#4 -856#2 -884#0 -733#3 -728#3 1341#1 1549#0 355#0 22 -618#1 1174#0 -443#1 1327#0 -1484#1 -526 856#1 412#0 803#1 1124 -569#4 -893 752#3 1083#0 1486#1 -622#2 1372#5 -737#0 -394#5 582#5 1189 614 626 585#3 1371 -879#4 -563#5 -691#4 1173#1 700#0 -680 375#0 520#9 -617#1 1146#4 -394#1 567#1 491#0 -367 520#2 752#6 -1258 358#3 -902#0 -359#1 15#2 1079#2 -520#4 918 621#1 1212#0 1223#1 1080 524#1 730#11 1343#0 622#1 -787#0 -730#5 1451 357 563#3 917#2 -355#1 -752#6 699#0 -1302#11 1529#1 745 -854 -104 705#1 575#1 -800#2 1027 244#2 878#2 708#1 -746#0 1086 702 1491#3 1583 -860#1 701#0 805 1001 -520#9 -746#2 895#4 1042 -439#5 1589 -1485 -519#1 354#1 -627#1 1093 726#1 -726#0 520#4 1324#1 1341#4 1213#0 -578 -590#0 -890#5 1548 1424 1098 1528 618#1 495#0 1252#1 -562#6 -721#2 683#3 -582#3 -1342#1 362 1054 -1586#1 -598#1 1577 -879#11 -293#4 1333#1 1191#1 -110 -499#2 -598#2 -283 -855#4 12 577 -282#1 617#3 277 597 -1372#4 -587 -705#2 730#3 561#0 -579#3 -354#2 1123#1 -789 317 -722 -494#1 1141#0 -440#8 855#0 1028#2 1084 -348 802 -732#2 1150 1559 857#0 562#2 -597 -279#0 -1486#3 -628 1408#7 -439#0 1006 1250#0 417 675 443#1 -1490 1341#7 360#0 -601#2 -595 1141#1 1592 1308#2 1038 -625#1 625#1 720 -569#0 -692 732#3 -804#2 529#1 589 864#2 790#1 561#2 -499#1 292#2 -617#5 1047#2 -1575 360#4 -860#3 514 -740#0 790#0 674 -704 284#1 1174#1 98 895#3 1116#1 1448#1 -582#5 858#0 -520#7 -1308#2 207 -752#0 1062#0 -293#3 791#5 -529#0 1217#1 582#10 -502#0 -902#3 579#0 1207 717 -593#5 1030 1212#1 401 598#2 -804#0 -369#0 244#3 593#3 -1577 776 -284#1 -779 -1307 -809#0 1145#1 -1343#3 -501 -279#1 857#3 104 1341#13 361 -1332#0 1090 -917#2 -706 281 -815#0 -713#1 -693 15#0 1486#2 804#2 1088 -860#2 1172#0 439#2 691#3 494#4 -801 -585#2 -1341#4 -787#3 1195#4 -748#5 574 1040 622#0 520#3 1326#0 1179#0 -856#1 501 248#1 -741#1 774 -730#10 179 1308#0 -1341#5 787#5 -817#0 -394#3 -689 1166 -354#0 1214 -1365 -806 443#0 -520#8 1073#2 -1250#0 -520#5 707#1 -1334#2 575#0 1050 -732#0 1258 193 1100 1229#0 888#1 -610#1 360#3 748#4 1079#0 -816#0 1218#0 -592#1 1148#1 1491#0 -593#0 -529#1 -794 -586 1256#3 1049#1 562#3 520#6 -190 1116#0 -275 1145#2 -717 1367#2 777 -440#0 582#4 1071#1 -1327#1 584#0 732#4 902#0 583#0 782 562#5 -626 -858#5 261 1479#1 1549#1 563#5 1576 -730#0 -359#0 -357 -730#11 907#2 733#3 -1479#1 -1308#1 -683#0 1448#0 1221 440#0 917#3 315 1485 684 -1343#1 -585#3 -294#4 -625#0 867#0 -572#2 1307 -443#0 -677 1448#3 -732#1 1256#2 -600 -617#4 1343#3 294#3 1341#0 1142#1 730#8 1524 -879#2 -439#2 -1491#3 1002 588#2 -529#2 -582#8 1241#1 -176 -439#8 748#3 1480#1 -888#2 1175#4 591 527 -186 -350 1209#0 1308#1 -1587 630#1 -747#1 890#4 15#7 816#2 -1372#2 569#0 520#5 -1343#2 586 -1333#3 1043#0 -707#0 885#1 -902#4 -1342#2 1043#1 522 -280 1308#3 585#1 698 157 -1256#1 855#3 1492 1308#4 -609#0 -440#1 243 1498#0 -502#2 -1250#3 -732#4 1085 190 -748#6 -747#0 853 730#1 781 -455 -581 -781 588#1 -723 282#3 625#2 627#1 353#1 733#2 1250#2 -714 515 1540 488 -567#0 1443 -623#0 1334#1 692 1146#3 440#4 1152#0 791#2 -613 -524#1 1137#1 282#2 -1341#11 -917#3 791#3 879#7 592#2 -516 -494#3 -712#0 -800#1 -583#0 732#1 -1194#2 439#6 1195#2 529#0 1341#14 752#5 -573#1 730#10 282#0 197 1484#2 1341#16 -522 -583#1 917#4 697 -737#2 1200#0 -1303#2" id="1"/>
    <taz edges="-1274 -1269#0 -451 456 448 -456 -1273 451 1274 911#1 -911#0 -448" id="20"/>
    <taz edges="1408#3 -432 1511#0 -468#0 -1306#2 82 415#4 -1300#4 23 851#0 -939#2 1513 468#5 -943 -1270#1 -1244#3 -1509 432 -1283#3 -493#4 1525 473#0 1293#4 -82 -1293#0 1487 -1289#0 473#1 -1300#3 -487 -1299#1 227 -1276#2 1007#0 1303#2 355#1 -1246#1 -1293#2 -1274 1017 -1408#3 1501 941 -1300#0 851#2 -231 889#1 495#1 338#0 -451 -92 1018 1551#0 -453 937 939#0 1408#2 -493#0 -1282#0 -1277#1 -473#1 1278 1303#0 368#0 914#0 1011#0 -368#0 911#1 1277#1 1413#3 1277#3 495#0 -1296#1 -1282#1 -1273 467#0 -474 497#1 1008 1121 1511#1 -1311#4 940 -494#0 391 -1306#0 1007#1 1294#1 368#1 453 -493#5 480 489#4 -468#3 338#2 -480 -1415 -499#2 -532#1 -1299#4 -368#1 338#3 892#1 -1513 457 -940 1300#4 1464#1 1287#0 198#0 468#6 -489#2 466 -1244#2 -475 -448 915#0 176 -491#1 -496 376 -1283#0 851#1 493#3 1244#0 232 490#1 -238#0 1012#0 1283#1 -495#0 1283#0 1277#0 -911#0 -1289#2 239#1 1408#6 -472#0 -916 -1297#1 -1286#1 -1309#1 1274 -1270#0 -980#1 471 -892#1 -98 -977 1408#7 -490#1 -937 1247#4 464 461 1156 1270#0 -1247#1 933#1 1286#1 -936 -462 -1284 1282#2 451 493#1 1159#2 -1299#0 1299#4 -468#2 460 942 1477 1282#0 -338#2 1291#3 1247#1 1288#1 1283#2 -489#1 1291#2 889#0 494#0 493#4 1011#1 1436#1 1297#0 1296#1 198#1 -913 98 -1408#0 -1408#6 943 -1275#0 -1295#1 489#1 -458 1298#1 -938 1275#0 -1299#2 -1293#3 1408#1 -452 -1301 -491#0 -1295#0 1510 1478 -1408#1 -1306#1 892#0 -489#0 -1247#3 -1291#3 459 478 467#1 532#1 -1244#0 -914#1 1293#0 -338#3 1270#3 -1277#2 -1298#1 1140 489#3 -1296#0 -889#0 936 1472 1283#3 1509 -1309#2 -1283#1 -1288#1 -467#1 939#2 1293#3 -1487 -1408#2 1292#0 -468#6 1275#1 244#3 -467#0 -1298#0 472#1 415#3 395 -478 1285#1 -1309#3 -493#2 1247#2 493#0 -1286#0 -493#1 470 -501 -472#1 -431 -461 -1246#0 -1244#4 -1511#1 -376 -1278 -1422 1015#0 230 1246#2 -456 -1296#4 -1276#1 1247#3 1298#0 915#1 -1245 1287#1 1285#2 -234 499#3 1157#0 489#2 -1511#2 1438 -493#3 1244#4 1297#1 1299#2 -941 1408#5 501 -460 1439 1288#0 -1275#1 -468#1 1303#1 -1285#2 -355#0 1511#2 -1283#4 -1280 1158 1290#0 1291#1 -1413#4 -468#5 -889#1 -876 -479 892#2 -1309#0 1306#0 1309#1 -1296#3 1010 -1282#2 1408#4 1012#1 -1290#1 -1287#1 -1291#2 981 1301 458 -23 -469 229 -1277#0 -465 468#2 1300#3 -1285#0 1290#1 1277#4 -1309#5 910 337 497#2 -1293#4 -459 1413#2 1285#0 -476#0 -1294#0 -93 1283#4 1244#1 489#0 -1420#3 1276#2 -1420#0 1306#1 1464#0 -1303#0 -338#0 -232 -1478 241 1309#5 338#1 -1244#1 -357 -1408#4 -1247#0 238#0 -1247#4 -915#0 -910 -495#1 -473#0 469 -1283#2 -227 1309#2 -933#0 851#3 977 -1510 1160 -1291#0 475 916 415#1 -1276#0 999 -914#0 -1289#1 238#1 -471 1304 -244#3 -1246#2 -1279 1157#1 -228 -1300#1 1015#1 1309#3 -89 -1292#0 -466 1245 1299#0 476#0 1296#0 1300#1 -939#1 -176 -1297#0 1413#0 -1413#3 -892#0 -1303#1 1270#1 1289#0 1295#1 1413#4 1244#3 -499#3 462 1309#0 -1501 -1413#1 1016#0 1302#0 231 1296#3 452 1282#1 472#0 1276#1 1294#0 1551#1 493#2 1244#2 1293#1 1422 -1511#0 -1300#2 496 1159#1 -999 1420#3 -1277#4 479 -229 -337 474 -1293#1 415#2 938 -338#1 -489#4 1420#0 -1291#1 1296#4 -1288#0 -489#3 -457 1408#0 243 355#0 -1281 -1304 476#1 -1477 89 -241 -1299#3 -395 -1309#4 1281 92 -1292#1 499#2 493#5 -1287#0 1464#2 1293#2 228 914#1 468#1 233 488 1117 1279 -935 -1413#2 -934 -942 1300#2 491#0 336 1306#2 -1270#2 -233 -336 1246#1 -238#1 -230 -476#1 1013 1437 -1290#0 1286#0 1537 1289#2 93 935 -1270#3 -1302#0 1299#3 431 -892#2 1299#1 1247#0 1295#0 1014#0 -1413#0 1291#0 -939#0 -1269#0 1009 -1277#3 1464#3 1413#1 1289#1 1276#0 1292#1 -1247#2 -1285#1 1527 1277#2 -391 1120 -981 1016#1 -915#1 -1294#1 1270#2 1593 1436#0 234 939#1 357 1275#2 1309#4 468#3 456 -1408#7 448 491#1 1014#1 -470 -355#1 487 -1408#5 -1303#2 1280" id="14"/>
    <taz edges="-1271 1264 1269#1 -1268 -1269#0 1270#0 1266 1268 -1415 -1269#1 -911#0 -1264 1275#2 1267 1271 -1266 -1270#0 -1267" id="19"/>
    <taz edges="-1421 1265 -1265 1421 1264 -1264" id="18"/>
    <taz edges="-636#0 -988 1310 1337 1377#3 863#1 601#1 1369#3 -1252#0 1427#1 -1326#2 -917#4 1333#2 1488 160#0 -631 1336 -1302#11 605 -1302#7 -1324#3 1326#1 -563#3 -1373#1 -352 537 -104 -1368#2 745 623#1 1442#0 701#2 631 1029#0 906#2 -347 1027 -1348#4 615 628 -1338#3 -746#0 862#0 1022 1377#5 -1370#5 1055 -1377#7 -509 729 860#4 -917#5 1250#3 1583 433#3 -339 641#2 -860#1 -1341#9 1302#14 -562#3 701#0 -1250#1 1154 404#0 547 531 -520#9 520#8 -622#1 1042 -1368#4 -543 -616 1315#5 -1579 -1341#3 -519#1 1338#0 1341#3 1589 -627#1 1338#9 963#0 954#3 520#4 -1248#11 562#6 1023#2 1467 610#1 884#1 1308#5 -265#1 1320 1324#1 1342#2 338#0 -890#0 1412#1 1341#4 1020#0 1176#1 -890#1 1551#0 265#1 1370#0 -534 -1347 1369#1 954#2 1343#4 -1338#2 -444#0 1419#8 -918 -979#2 -890#5 -627#0 1420#2 -250 -1315#2 -1338#4 1312#4 1089#0 728#1 1351#1 1424 1068 1463#2 988 -635 1312#1 850#3 1045#0 1463#4 -1348#5 855#2 -1341#6 1061 -641#2 -637 1075#0 1252#10 1377#11 1463#0 -1367#2 1528 246#1 1251#0 1252#1 -1333#1 -562#6 627#0 979#0 979#2 -531 -599 1028#1 -731 1252#4 1326#3 447 -1377#4 -1311#4 1462#0 1089#1 1046 -1315#4 503#1 954#1 -1342#1 1341#6 -728#0 -601#0 1054 641#1 1024#0 -1338#0 -1586#1 -1348#0 -1302#9 -598#1 -26 -961#0 -849 1536#0 549 -562#5 -1377#3 -1486#2 -601#3 338#2 246#0 1324#4 -505 1311#1 917#8 636#2 -533 -917#0 881 418 -520#6 -1338#9 1302#7 1333#1 986#0 -881 -1369#1 507#0 1332#7 1543#0 -598#2 -1340#5 1075#1 1351#4 1419#7 -532#1 890#2 -1414 369#1 535 1332#3 -855#4 503#4 -932#0 -970 1302#2 1340#4 1447#0 1182#0 1025 1302#13 404#1 -506 906#1 -1338#8 892#0 444#0 -1338#6 1182#1 1324#2 -494#4 597 1370#1 -25 1019#0 1125 -647 176 -954#2 433#2 1350 624#1 616 562#1 860#2 978 -563#0 -1332#3 -1377#6 -1340#0 -1252#8 1329 561#0 1302#9 1123#1 1341#10 609#1 -1312#3 957 1326#2 -896 855#0 1342#1 -1341#13 1028#2 1044 -1348#3 -1496 -520#0 1341#9 351#3 1343#2 -645#1 503#0 607 -1349#1 1302#8 606 -1498#1 1559 594 -646 1345 1414 1463#1 1590 394#3 -606 884#0 -884#1 511 1338#2 562#2 352 862#1 -597 -1486#3 -980#1 -1252#9 1302#3 1340#2 -746#1 -628 1368#3 1349#1 1006 -1377#11 1493 -385 1250#0 -1310 -625#2 647 -1370#3 924#1 944#1 1539 1341#7 -1412#0 -109 -595 -601#2 -954#1 890#3 1592 1308#2 -960 1450#1 1038 1441 -1326#0 -924#1 1130 1333#3 -601#1 -625#1 625#1 1127 -1250#2 -394#2 -563#1 -961#1 1447#1 -511 1585 -525#0 1177 -1369#3 -444#1 1328 -645#0 1579 -728#2 529#1 562#4 -353#0 1346 -986#1 -338#2 609#2 561#2 -1250#5 -1493 -1419#7 -1329 -514 1365 1184#1 -1312#5 1047#2 -1368#3 -519#2 -1351#1 -1302#3 1302#10 519#2 -730#7 -519#0 -860#3 1338#3 -1332#4 543 514 -1341#7 -1420#1 1297#0 1302#4 1252#7 -1369#0 206 -561#1 1374 1314 -503#3 119 1315#2 -249#1 -1370#0 249#1 -1338#5 1448#1 -603 -416#1 -520#7 -980#0 1338#5 -444#2 -1308#2 -615 -1311#1 1064#0 1327#1 -1370#2 -1255 -1301 -1351#3 -730#6 1062#0 850#4 1558 1584#1 -957 646 1257 -1343#5 -529#0 -541#0 1348#2 1541 -1423 -944#1 1587 25 860#0 478 1312#5 1155#0 494#3 504 -541#1 -730#9 1026 -1334#1 1176#0 1412#0 1312#6 250 -265#0 -563#2 582#10 603 1311#3 1313#0 -1296#0 -502#0 945 -508 -245 -503#0 -1308#4 1373#1 728#5 -1313#1 -1248#12 1486#3 -1340#4 1176#2 -1351#2 409#0 1302#5 1126 612 -1252#10 -609#1 1377#4 -1252#1 717 641#3 -1367#0 1030 1536#1 860#1 636#1 -353#1 1052 1440 401 520#1 850#2 917#6 598#2 1450#0 1155#1 -369#0 -212 -855#1 -1302#5 -547 641#0 -1376 1368#6 -1498#0 1338#8 -959 -504 444#2 -478 433#0 890#1 1332#2 -1339 -640 -1307 -932#1 959 970 709 -1312#2 -1343#3 -501 -611 1324#0 1448#4 350 104 1341#13 544 636#0 525#0 -1315#0 -1252#2 -1313#0 1369#0 -944#2 -1332#0 1332#8 -1328 -917#2 1547 -1340#2 -1586#0 -706 1165 1311#4 1442#2 728#3 1252#11 1256#7 1015#0 1348#3 -1348#7 -503#4 1442#3 -1312#4 -137 617#2 1486#2 1312#3 -730#8 -263 1425#0 262 394#1 -562#4 -1333#0 -860#2 1332#1 -524#0 -979#1 563#4 1250#5 494#4 409#1 369#0 -636#2 -1338#7 1463#3 -1341#4 1024#1 1041#2 503#5 -249#0 1581 -546 1255 925 137 -24 507#1 -1377#9 1185#0 1040 -1315#5 622#0 520#3 1584#0 -860#0 -917#7 1326#0 -1335 -944#0 520#0 -617#2 633#2 1179#0 683#0 501 248#1 -1251#1 920 599 1377#9 1586#0 1005 944#2 645#0 -730#10 1036 602 258 -1252#11 1348#0 623#0 1444#2 -510 1186 1308#0 -1497 550 -1308#0 -1341#5 -1308#3 1333#0 -1311#2 -394#3 1312#2 1315#4 1166 728#4 510 -1365 1376 -729 932#1 -1324#0 -920 1031 -378 -622#0 -602 416#0 -549 753 1445 -520#8 563#1 -617#0 1463#5 -890#2 -1250#0 -416#0 1059 -520#5 1377#7 1020#1 -1349#3 -1334#2 863#2 265#0 -963#1 1050 1058 595 609#0 1368#2 541#1 567#0 981 -206 -1342#0 -519#3 -610#1 1301 1463#7 1544 1079#0 -944#3 1250#4 1453#0 598#1 622#2 1340#3 -1350 1542#1 954#0 1348#5 898 1462#1 608 -529#1 -1341#12 1496 403 -1377#10 -1324#4 -1327#0 1049#1 -1309#7 1342#0 -512 -1252#5 1057 1340#0 1526 -979#3 1448#2 394#5 562#3 1028#0 1373#0 520#6 -1252#4 701#1 1178 1349#0 1338#6 -1309#5 -369#1 1366 1446#0 1538 351#2 -608 1170#0 617#1 -246#2 -735 378 -925 617#0 351#1 1309#7 -384 396 1302#12 1367#2 1248#12 850#1 -476#0 -594 -582#10 -1315#6 -1411 1343#5 500 1180#1 644 855#1 1049#0 1582 -1334#0 -1302#13 1252#6 1349#2 -563#4 -641#3 -1327#1 -536 963#1 1338#7 -1330 353#0 601#2 -1420#3 -1420#0 -542#1 -544 730#7 1377#8 -1302#10 263 1348#7 -503#2 -1486#0 -626 -1302#8 1183#2 1377#6 160#1 1309#6 562#5 -338#0 1064#2 -855#2 -917#6 1449 645#2 1309#5 1351#2 338#1 917#0 563#5 1311#0 -1250#4 -1349#0 -1368#1 1341#5 1349#4 -1256#7 1065 1302#6 1369#2 -266 1053 -1372#0 -1338#1 -890#4 1066 266 -1308#1 -532#0 1455 -683#0 1448#0 248#0 1047#1 582#11 532#1 -1343#0 -1377#0 -1585 -1486#1 520#7 917#3 508 -645#2 1349#3 1062#1 1248#11 1543#1 -1341#8 -1332#1 1370#4 246#2 -1368#6 980#0 1426 -1311#3 -1343#1 990 730#9 1341#12 1312#0 1419#9 634 1557 932#0 405 979#3 533 1523 -625#0 1064#1 1368#1 -1252#7 906#0 1334#2 1307 -1349#4 1368#5 -520#3 -890#3 860#3 890#5 -1341#14 1335 -753 1448#3 961#1 1302#1 1427#0 596#1 -562#2 730#6 1015#1 -562#1 1343#3 -951 601#3 109 1045#1 1341#0 1348#4 1023#1 1370#3 -447 -1314 -1412#1 730#8 -962 351#4 1162 1524 -1420#2 249#0 1313#1 -1348#2 -1368#0 -1343#4 1340#1 1296#0 476#0 -246#0 519#1 -633#1 -529#2 1344 -855#3 944#3 1251#1 -176 1252#5 -1297#0 1041#1 611 951 -346 506 1079#1 -1332#8 1370#5 1341#8 -1257 -605 1588 -1320 1444#0 212 -561#0 1446#1 -892#0 1338#4 503#2 -350 855#4 -1331 385 1308#1 -1587 19 630#1 -1341#0 1330 890#4 -636#1 649 -550 -503#1 524#0 -1351#4 -1377#1 -612 1486#0 562#0 -609#2 -1346 -1370#1 1128#1 -1370#4 1324#3 1048 1302#0 563#2 -1373#0 -1311#0 -1324#1 -1488 1331 -1326#3 1377#2 -627#2 1023#0 1199 996 1181#0 1047#0 -624#1 416#1 520#5 919 -979#0 -507#0 1060 1591 542#1 563#0 1420#1 896 -1343#2 -1349#2 1056 -860#4 26 -1302#4 1063 -641#0 633#1 1427#3 859 529#2 -562#0 -1332#5 735 1315#3 -542#0 -1377#2 1420#3 -954#3 -246#1 -1333#3 1043#0 1021 -1377#5 1411 -1309#6 -507#1 -1341#16 433#1 728#2 1302#11 1252#9 1341#15 -728#1 -728#4 905 -1342#2 1043#1 -338#1 1197 1019#1 1252#2 850#0 1420#0 400 522 -1312#0 1454 444#1 1463#6 1184#0 1308#3 -1341#15 1051 1535 1041#0 -535 1334#0 157 28 917#5 -537 -884#0 855#3 1497 1183#1 1375 1556 1308#4 -607 -609#0 -728#3 1425#1 1341#1 1442#1 1351#3 -986#0 1179#1 -1302#12 22 1498#0 980#1 -905 -1250#3 1327#0 -1251#0 1370#2 1252#8 1089#2 200 541#0 476#1 -1312#1 505 1124 512 -958 1453#1 627#1 1486#1 -633#2 -917#8 -622#2 625#2 -1581 1377#10 -394#5 -1333#2 353#1 1250#2 536 614 626 -1337 1181#1 1371 1377#0 1423 1252#0 264 -1348#6 -1332#2 -1419#8 -563#5 -954#0 1315#0 1343#1 -963#0 746#1 1367#0 1315#1 1498#1 1164 1348#1 1029#1 944#0 -1369#2 1183#0 1540 1128#0 1122 1250#1 1117 520#9 -617#1 1180#0 534 613 -567#0 -394#1 1311#2 -623#0 1332#4 1334#1 1443 346 567#1 1167 953 -945 958 1427#2 520#2 627#2 546 1367#1 -1375 -476#1 519#3 -1315#3 -613 -524#1 960 1377#1 -1324#2 -1341#1 -1348#1 962 1537 1452 1079#2 -1302#2 -520#4 -709 -1341#11 394#2 -200 -520#2 -917#3 596#0 918 -1344 -1302#6 -262 917#7 -520#1 -1302#0 -1340#1 1129 -1315#1 -494#3 640 -1340#3 -1252#6 1339 -396 1315#6 1332#6 1348#6 -1341#10 -1302#14 347 524#1 -614 402 529#0 1341#14 -561#2 -855#0 561#1 503#3 1444#1 -1368#5 1332#5 1340#5 1341#11 509 1343#0 622#1 849 -248#0 -1345 -1377#8 1123#0 961#0 -981 1451 -1326#1 1368#4 -859 -1302#1 -258 1341#16 1586#1 -522 -728#5 637 979#1 -610#0 645#1 917#4 563#3 -1367#1 1542#0 -641#1 -624#0 1338#1 -1332#7 -1336 986#1 917#2 -1332#6" id="13"/>
    <taz edges="1476#1 1393#2 -1407#8 1404#2 1457 1508#0 1469#1 -809#1 1390#1 -1580 1534#1 1404#16 1466#3 1113 -837#2 1505#0 1112 -1407#3 1404#17 -929#7 1491#3 -927#1 1466#0 -829#7 1507#1 113 817#1 -838#1 -306#0 1240 1508#3 -830#0 -223#5 1134#1 1508#2 306#1 812#2 -1396#2 223#0 -823 1232 -1390#1 -1404#20 1470 -822 -829#6 1404#12 829#3 895#1 -903 -1397#1 1393#1 -819#0 1407#4 -1390#5 829#6 1383#0 1506 929#4 903 1555 1404#24 831 -927#0 -1404#21 -821#2 1238 -1393#0 -829#2 1404#1 297 1110#1 1404#11 301 -790#0 1135 1401#0 292#1 -904#0 1104 1132 -1400#1 -836#1 1225 1428#1 -1398 -929#3 1534#0 1105 -929#4 829#0 -929#0 751#1 814#2 1428#2 223#8 -1492 1553 894 1236#1 821#0 295#1 -1404#11 -992#1 -830#2 -929#6 -1407#4 223#4 374#1 -814#2 -1407#9 -315 1381#1 -812#0 -819#5 300#2 1578 -1491#2 829#4 1533 1133#0 1552#2 -223#6 -374#1 -829#0 300#1 828#1 1435 296 -209 443#1 819#8 838#1 -1490 -1491#1 1432 -1395#0 829#8 -829#5 1495#0 1235#0 895#2 1390#5 -1401#0 1403#1 836#0 -811#0 -1403#1 -1395#1 1404#20 1133#1 929#6 305 1393#3 -804#2 -877 1460#2 -1404#18 1433 -1571#0 -816#2 1429#3 790#1 -909 -821#0 -931#1 1429#2 1239#0 -1404#19 1233 1407#11 669 -819#1 1429#1 790#2 1109 -223#1 -1515 1404#10 1108 790#0 -223#8 1404#19 1404#7 1404#6 895#3 -829#4 904#0 -298#0 -811#1 1430 1401#3 207 1400#2 931#1 1114 -1404#24 1429#0 837#1 223#10 817#0 1465 292#0 834 1580 1507#2 115#1 -902#3 823 -1381#1 -929#1 927#0 374#0 -904#1 819#0 1395#0 -807 -1262 1404#3 -829#3 1431 1403#0 -804#0 814#0 -837#0 821#1 1231 826 -814#1 306#2 929#3 816#0 -1383#0 -1404#7 1574 -1378 1466#1 223#2 -340 -900 1397#0 -1404#23 -1263 435 1131#0 829#7 1405#1 -929#2 830#1 828#0 -815#0 1218#2 -1401#2 -223#9 1404#18 1401#1 -929#5 1101 -1404#8 843 804#2 1390#0 -224 -1394 1383#1 1355#0 1111 807 815#1 1508#1 -819#2 -821#1 1261 1228#1 1407#8 -826 1460#0 -931#0 930#0 1404#5 1393#0 -223#7 1103 -292#0 -1404#12 -819#4 -1404#6 1243 223#5 -835 1389#1 1434#0 -1393#1 1094#1 -856#1 1381#0 300#3 -1260#1 -1404#10 -1383#1 1396#0 -318 349 829#1 1239#1 -374#0 -927#2 1390#2 1407#0 810#1 1404#27 -1407#6 812#0 -817#0 1466#2 833#0 1407#3 -804#1 -828#0 443#0 1545 772 1228#0 -296 -1505#1 -842 115#0 1106 1258 -834 -1391 1224 193 223#3 -298#2 1229#0 -1390#0 -1392 -816#0 1491#0 -1382#1 -1390#2 298#0 -306#2 -930#1 1397#1 295#0 1102 -1404#0 730#0 1260#0 818#0 -1397#0 -1393#3 808#0 1468 -838#0 -1403#2 -1400#3 -817#1 295#2 -1407#11 -1516#0 -1401#3 902#0 1461#1 -297 1391 223#7 1382#0 829#5 992#1 -902#1 -790#1 -730#0 -1396#1 -772 1382#1 -1381#0 -814#0 -819#7 1395#1 -1516#1 -1404#16 1390#4 -1407#2 208 1094#0 -1405#1 1400#3 809#1 -304 -830#1 839 -1355#0 1428#0 1456#1 -1407#5 315 -223#3 1131#1 992#0 -1404#2 -1393#2 1381#2 -819#6 1459 1552#3 -1404#3 815#0 1499 1392 1390#3 840 -1404#27 -1260#0 -443#0 819#6 1407#1 837#2 318 -1404#1 995 929#1 819#1 811#0 -301 1119 830#0 1456#0 298#2 -1407#1 804#1 1407#7 223#9 -828#1 811#1 -1491#3 931#0 -1400#0 -1404#5 856#2 824 1407#2 -829#1 306#3 -927#3 -839 998 -908 812#1 1461#0 1458 902#4 1490 1531 -751#1 -1404#25 1401#2 -1261 1460#1 1400#1 -1399 1229#1 1552#1 927#2 -1404#17 -669 -223#4 1495#1 815#2 1236#0 -856#0 1474 816#2 -843 819#4 904#1 -1407#0 1403#2 1507#0 -819#3 1003 1235#1 304 1404#25 -10 835 1115 300#0 -306#3 842 816#1 908 -1499 1491#1 -819#8 1532 -810#1 900 1476#0 120#1 929#2 -992#0 -1396#0 1404#8 -902#4 1404#9 -223#2 10 1516#1 -818#0 -1390#4 -193 -930#0 821#2 340 1107 -812#1 -856#2 -1403#0 1492 -300#3 1469#0 1552#0 -1400#2 -1402 -816#1 1263 1402 -300#2 1399 1407#9 830#2 -1491#0 1401#4 -443#1 -831 -1401#1 856#1 803#1 -893 -1407#7 -829#8 902#3 836#1 -1382#0 856#0 1471 1372#5 1094#2 -300#1 -810#0 1226 1515 -300#0 -827 -292#1 -113 -818#1 1404#26 1394 829#2 -1390#3 1434#1 930#1 -223#10 929#5 295#3 1404#13 -1404#9 -1505#0 819#3 818#1 927#3 299 -808#0 1230 1118 1260#1 -1258 -840 1505#1 -902#0 14 1378 -305 1473 819#2 825#8 -824 -223#0 1404#21 -815#1 -1514 814#1 -837#1 1407#6 838#0 1237 1516#0 902#1 -208 -994 929#7 822 808#1 837#0 -836#0 -815#2 893 223#1 1143 -115#0 -808#1 909 1396#1 1398 1407#5 929#0 819#5 -115#1 223#6 -790#2 819#7 1134#0 927#1 1396#2 -306#1 -833#0 1095 -1517 1404#23 827 1530 -812#2 -1404#26 1491#2 -803#1 -1404#13 1262 -1389#1" id="12"/>