<tazs>
    <taz edges="420 421" id="33"/>
    <taz edges="464 1593" id="45"/>
    <taz edges="1281 -933#0 -913 456" id="34"/>
    <taz edges="486#1 -891" id="44"/>
    <taz edges="310#3 1364" id="43"/>
    <taz edges="430#0 216#1" id="32"/>
    <taz edges="1380#0 -1380#0" id="42"/>
    <taz edges="-1387#0 -1388" id="41"/>
    <taz edges="-1406 1406" id="31"/>
    <taz edges="440#0 859 -499#0 -812#0 600 -632 -1308#0 293#3 -609#0 -598#1 -699#0 -730#11 -1256#2 -694 888#0 -725 624#1 601#2 717 247#1 728#5 791#5 582#5 -455 1256#2 -739#2 614 701#2 -686 563#0 362 723 -812#1 -1491#1 -917#6 1491#1 815#1 -582#6 100 375#0 -1252#0 567#1 790#1 1575 1250#0 -494#2 1372#3 -687 -804#1 -522 -801 -1327#1 860#4 -703#1 687 524#0 -1342#0 690 -1408#7 -598#2 -752#4 -811#1 -782 730#10 -852 752#6 -743#0 -1367#2 -797 205#3 592#1 -789 -677 1342#2 629 240#1 -722 -292#1 443#1 728#3 -726#0 568 714 -885#1 -885#0 -705#3 -1372#3 -613 -917#2 -529#0 -278 -12 -752#0 721#0 730#5 809#1 191 520#1 -583#0 -780 806 -567#0 584#0 -624#1 -787#1 816#2 201 257#2 -785 879#7 812#0 294#1 513 318 -318 -615 179 574 530 -747#1 366#2 -599 1324#1 -1341#0 1492 917#7 -1480#1 -562#0 -707#0 353#0 811#1 695 -353#0 -721#2 1479#2 -282#2 226 732#2 691#2 685 615 -1252#1 562#3 578 -787#3 787#2 -1341#7 1420#0 -688 587 -799 700#0 367 694 507#1 -582#7 -519#2 371 -1479#1 182 -562#4 -775 -579#3 -854 -359#0 1374 588#2 -858#2 678 525#0 -703#2 585#4 -562#5 855#2 -748#0 705#4 582#1 585#3 -564#1 358#0 748#3 -748#1 -592#0 -747#2 618#1 -790#2 601#1 283 -728#2 -579#6 -748#4 888#2 752#0 394#1 1341#5 1483 -777 732#1 790#3 925 -707#1 863#1 -809#1 -501 -582#2 1256#3 -856#2 -507#1 -864#0 -693 356 -888#3 1408#7 -787#0 715 932#0 857#0 -866 -494#1 864#1 1328 -359#1 1486#3 1333#0 563#1 317 745 -562#6 1256#4 917#2 1327#0 -1343#2 1498#0 298#1 -783 -1341#10 728#4 524#1 -858#1 316#0 569#1 520#4 682#1 592#0 -292#0 257#1 -917#7 1334#2 878#4 -1420#0 1302#12 895#3 597 862#0 917#8 13#0 -348 -601#3 -1486#0 -614 1486#0 740#0 1308#4 -855#3 -1343#1 -723 1326#1 -294#0 -903 1341#12 622#2 860#3 292#0 -804#0 351#4 903 789 -1302#11 -192 -1327#0 560 711#1 582#7 -628 -1372#4 -183 1256#1 -521#0 -1479#2 -741#0 726#1 628 494#2 -527 1250#2 287 -809#0 316#1 1302#11 -1491#0 617#3 -1479#0 -726#2 819#0 -730#7 -1480#2 -186 -363 -579#5 163 787#5 885#0 97 -859 794 575#0 -1341#1 895#4 494#3 -520#7 707#0 855#3 782 -573#1 -564#0 211#4 -811#0 -597 805 394#5 802 792#1 -1341#12 -733#2 394#3 1484#3 -920 570 739#3 564#2 -1486#2 -748#3 -1250#3 -679 784 -1486#1 617#2 -584#1 1302#10 -800#2 247#3 -683#1 -739#3 -1485 -1308#1 884#1 748#2 562#1 621#0 15#3 1333#2 562#4 857#3 298#3 -702 -580 -354#1 -617#3 -705#4 886 282#3 280 1576 -1256#1 369#0 907#0 737#2 -491#0 792#0 -776 902#3 879#4 -690 -691#4 563#5 -748#5 -601#1 887 741#1 -1486#3 582#6 593#5 -568 598#2 -394#5 604#0 699#1 244#2 439#7 791#4 902#4 495#0 520#0 583#1 1343#0 293#1 890#5 617#4 -520#1 294#3 -747#0 197 -733#3 -496 -394#2 440#6 -1308#2 257#3 502#1 630#3 -279#0 778 627#3 -800#0 582#3 729 -728#4 -184 1308#2 812#2 -275 856#1 -572#1 908 1341#7 1341#16 604#1 592#4 244#1 -562#2 703#0 787#1 858#1 -513 627#0 -17 696 -375#1 -727 497#1 579#5 -495#0 360#2 895#2 572#0 790#2 689 -716 579#4 189#1 -575#0 -737#0 879#8 -587 917#5 520#3 623#1 523 727 -352 -276 703#1 708#0 746#2 730#9 722 -697 -1328 -201 440#2 -1586#0 354#2 -917#8 730#8 740#1 205#0 1341#8 -1498#0 -813 -582#9 -787#2 1367#2 -242 360#4 594 595 -752#2 -617#5 -778 734#3 -1250#0 588#1 -929#6 358#3 855#1 890#4 522 205#2 440#8 -1480#3 730#0 1341#15 213 255 -800#1 439#4 561#1 -779 358#1 781 699#0 582#11 1479#0 1332#1 1334#1 728#2 520#6 752#2 857#4 205#1 -752#1 -798 354#1 -721#1 719 -389 1252#0 674 -1256#3 -730#0 746#1 863#0 282#1 -888#2 791#0 211#1 -573#0 278 -1488 185 569#2 718 721#2 -601#0 -815#0 -579#0 497#2 -499#1 -907#0 -858#0 1250#3 593#2 -856#1 747#1 803#1 852 -10 572#2 -294#2 702 573#0 -562#3 631 1342#0 752#1 -292#2 803#0 -582#10 -1480#0 -815#2 817#1 590#1 1324#0 1585 -890#4 -350 -1341#3 519#1 682#0 -1342#1 609#1 583#2 800#0 1341#14 -739#1 -752#3 917#4 622#1 579#3 -719 -1343#0 785 748#5 187#1 -1404#0 -907#2 293#4 496 864#0 748#0 -531 279#0 593#3 1484#2 1326#3 572#1 730#1 -917#4 455 894 -524#0 617#0 352 -794 -572#2 622#3 860#2 -617#2 562#6 15#4 730#7 358#2 351#3 879#6 -524#1 709 1587 610#1 257#0 602 351#2 868 1333#1 -590#0 -713#0 878#2 579#0 807 519#3 -13#0 -592#4 394#0 585#0 -1341#14 514 -519#1 355#1 -520#3 -784 -582#8 567#0 15#2 730#4 817#0 -1342#2 10 1252#1 447 728#1 777 258 526 1372#4 -562#1 -604#2 355#0 -714 618#0 864#2 244#0 592#2 -730#10 -293#1 1482 609#2 -864#1 -610#1 726#0 632 -818#1 800#2 683#1 360#0 697 360#5 -795 -682#0 -712#1 -294#1 884#0 799 865 -416#0 1343#1 499#3 -293#3 1366 734#0 360#1 907#2 -807 -917#5 -748#2 -579#1 -354#2 -676 598#1 -566 1303#2 586 -704 -684 -720 1341#9 248#0 599 743#1 319#0 1485 739#0 -185 593#0 856#0 716 -746#2 1586#1 529#0 -752#6 582#9 291 -291 -730#9 -610#0 779 733#1 -258 319#1 -525#0 -743#1 281 298#0 -705#2 584#1 725 -576 582#8 787#3 879#9 929#7 895#1 1346 893 -623#0 1586#0 1324#3 -855#0 -622#2 -710 734#2 -514 515 730#6 -728#5 730#11 -1341#13 -1490 -202 173 -1332#0 -622#0 -604#0 178 705#0 -416#1 -888#5 569#0 -248#0 299 294#2 -226 627#2 -373 563#3 -624#0 -592#3 81 1334#0 1486#1 858#5 355#2 730#2 917#3 15#7 -366#2 189#0 920 292#2 -698 732#0 1333#3 -296 -790#0 -815#1 -520#4 -1341#16 564#0 726#2 -520#8 -1369#2 -279#1 499#2 582#2 -502#2 520#9 282#0 879#3 348 416#1 1258 -178 -816#1 593#1 867#1 -618#1 -683#2 -293#4 860#1 -494#4 276 1250#1 315 -683#0 854 786 1491#2 795 -744 108 -1341#5 -592#1 -577 625#2 516 773 502#2 -685 1480#2 888#5 581 563#4 -721#0 866 -589 439#0 565 -1585 -319#0 -578 -1341#11 -575#1 752#5 585#1 -927#0 573#1 -708#0 -1258 15#5 -529#1 -708#1 -1341#9 -294#3 780 298#2 804#2 294#0 12 -711#1 788 -353#1 349 561#0 -733#0 -929#7 369#1 708#1 -593#5 688 -626 -706 732#5 293#0 -867#0 202 732#4 733#0 -741#1 -748#6 790#0 174 743#0 520#5 724 -317 -520#0 798 -521#1 529#1 -728#1 357 -604#1 927#0 -319#1 691#0 103 -579#4 1486#2 -1346 691#5 -519#0 -408 -705#1 -609#1 -582#5 -588#1 294#4 -884#0 888#1 -629 691#4 527 918 1307 -1491#4 630#1 494#4 351#1 739#2 -888#1 858#4 791#3 684 -367 677 562#5 -728#0 375#1 804#1 -703#0 -855#4 -888#4 -730#3 -592#2 909 752#3 -730#5 439#2 862#1 1480#1 243 261 -1308#4 240#0 907#1 705#1 -1341#8 617#5 15#1 247#4 443#0 569#4 867#0 -737#2 -855#2 563#2 1343#2 -858#4 505 713#0 -728#3 -1307 -804#2 705#2 575#1 793 359#1 520#8 929#6 863#2 494#0 -682#1 1480#3 701#1 579#2 721#1 -502#1 1577 888#4 609#0 787#4 -581 -584#0 -293#2 747#0 576 439#9 730#3 800#1 -1250#1 -520#6 -495#1 792#2 -689 -612 1372#5 -860#2 692 932#1 741#0 529#2 698 579#6 -361 -786 359#0 188 292#1 856#2 625#1 248#1 569#3 -730#4 488 579#1 815#2 -583#1 562#0 -817#0 -802 776 383 -572#0 -520#5 879#2 -617#0 617#1 562#2 580 917#6 -593#0 787#0 373 -315 683#2 1327#1 -162 748#1 -1483 279#1 -182 601#3 -1302#12 713#1 -582#1 -108 -691#0 -713#1 -282#3 -583#2 1341#10 -600 -890#5 16 -502#0 623#0 -520#9 737#0 791#2 879#11 -1372#2 -793 619 -394#0 -593#2 592#3 494#1 675 -287 394#2 -806 620 275 626 742 1367#0 676 732#3 -715 -383 604#2 15#0 1491#4 686 855#0 783 -730#8 748#6 1491#3 -790#1 -294#4 582#10 1484#1 -860#1 861 593#4 -574 -733#1 -746#0 320 878#3 -1302#10 -588#2 -494#0 902#0 360#3 853 -856#0 585#2 613 -564#2 1324#2 -877 1341#6 361 -691#2 -582#3 519#2 184 -1308#3 -293#0 -726#1 683#0 -375#0 -1343#3 1341#11 -98 1324#4 -617#4 244#3 -819#0 -1367#0 860#0 -526 -918 -1341#6 -705#0 -590#1 -816#0 -494#3 -1341#4 211#2 703#2 747#2 192 885#1 520#2 630#2 -601#2 -746#1 1371 -622#1 -593#3 296 -888#0 -858#5 813 583#0 582#4 183 1308#5 733#2 416#0 791#1 -907#1 1480#0 162 -282#0 1329 -788 -917#3 627#1 -868 -730#2 353#1 -699#1 -369#0 879#1 531 277 -860#0 -1329 354#0 363 439#6 -197 366#0 736 293#2 1341#13 816#1 -890#0 1308#0 -803#0 815#0 247#2 1308#3 -609#2 752#4 -1491#2 735 -855#1 -730#1 1488 -691#3 733#3 801 -369#1 589 1479#1 879#5 -593#1 -505 712#0 -622#3 284#1 389 -803#1 15#6 211#3 284#0 -282#1 -739#0 857#1 878#1 683#3 902#1 285 621#2 705#3 1308#1 408 -1365 734#1 -617#1 -867#1 499#1 679 857#2 1326#0 744 561#2 691#3 -520#2 878#0 1484#0 1365 -781 -13#1 -1256#4 -700#0 774 -1491#3 521#1 -691#5 -787#4 -752#5 17 -1492 528 -530 -712#0 -582#4 210 -700#1 748#4 -394#3 693 242 -1482 1326#2 1341#0 1341#1 712#1 -602 -593#4 775 -191 566 -696 1342#1 282#2 707#1 -683#3 734#4 -1341#15 888#3 -579#2 -805 -499#2 816#0 111 -1587 -730#6 818#1 -240#1 590#0 204 858#2 -864#2 739#1 -1250#2 622#0 -354#0 520#7 187#0 1341#4 -817#1 -692 -240#0 1341#3 -1586#1 1343#3 710 1481 -1332#1 440#3 -255 -618#0 -773 -860#3 -366#0 612 855#4 564#1 902#2 495#1 700#1 919 -394#1 -717 13#1" id="1"/>
    <taz edges="911#1 456 451 -911#0 -448 -1269#0 -1273 -1274" id="20"/>
    <taz edges="-478 -1284 1276#0 1296#0 134 1501 1283#2 -1510 -1298#0 892#2 1299#1 368#0 1413#1 1510 355#0 -1292#1 -1246#0 -493#4 230 1290#1 1276#1 1306#1 -489#2 488 -1275#1 -1293#3 942 1413#0 -1300#1 478 -1285#2 -457 1244#3 -232 -1299#3 457 493#0 1311#4 889#1 -1291#3 -1300#3 415#4 -491#0 1246#2 -175 1309#0 422 -1275#0 1295#0 499#3 100 473#1 1487 -1291#0 -376 229 1277#2 -1511#1 233 1279 -473#1 489#2 1413#3 495#0 860#4 489#4 889#0 -1408#7 1303#2 474 -1477 -911#0 1422 338#1 231 -470 -489#1 1283#0 943 -496 -1293#2 1288#0 130 426 1293#0 -1306#1 458 -1422 851#3 338#3 -1487 -1246#1 -230 -938 1513 1287#0 493#5 -1413#0 -1277#1 1299#2 -1408#0 1565#1 -1278 -889#1 1293#1 -1309#1 -468#2 491#1 415#1 1280 -1270#3 -892#2 466 -1282#0 851#1 -453 1477 1245 368#1 1306#2 -231 468#3 493#1 1270#0 -468#5 1277#0 1288#1 -338#3 232 939#2 1293#3 1297#1 1244#1 -466 489#0 -494#0 1291#2 910 1511#1 -934 493#4 916 -391 168 497#1 940 1408#1 914#1 -495#0 -1277#4 -1245 -1283#0 336 1277#1 -1270#0 1282#0 -1413#2 239#1 -233 -368#1 -1299#0 -1306#2 851#0 1294#1 1247#2 -1244#0 -980#1 -98 1244#0 -467#0 -1413#4 -471 1296#1 244#3 -468#0 -933#0 -1270#1 -892#0 -915#0 1285#2 -999 -475 1511#2 -493#5 -1408#6 431 -1296#0 -1294#1 -977 1287#1 938 -1302#0 -468#1 -943 1511#0 -1286#1 1282#1 -452 432 1281 1283#1 1420#0 -1306#0 -1509 1290#0 -1290#0 227 -480 1297#0 1275#2 499#2 939#1 -1408#1 -1292#0 -489#0 1275#1 -1511#2 -395 490#1 1283#4 -1277#0 -487 415#3 -1299#1 -489#3 -1415 467#1 -1511#0 915#1 -1294#0 -914#0 471 -1282#2 -473#0 1282#2 937 -199#0 395 1285#1 1276#2 -1295#1 -468#3 -892#1 -916 -1309#5 -1296#4 -1309#3 -467#1 451 -472#1 452 -493#3 415#2 -493#0 -1309#4 338#2 -1300#2 -1244#2 -1277#3 -229 -1283#1 -913 479 -1291#1 -1408#5 -1276#0 -940 1244#2 -1285#0 1270#2 -935 935 1408#6 234 489#3 1247#1 1408#3 424 -501 459 1295#1 1277#3 1283#3 -1273 933#1 164 532#1 -1282#1 -1289#2 1408#7 -1296#1 1408#4 -493#2 -1286#0 -1246#2 1291#0 169 497#2 1593 1286#0 456 167 468#2 1309#5 1289#1 -1501 -468#6 1291#1 -1296#3 472#1 941 -93 -459 1247#3 338#0 1408#0 419#1 -489#4 -493#1 -234 -338#0 1292#0 472#0 -1269#0 175 -476#0 -1283#4 199#0 -465 1300#3 23 -1244#4 -479 -1247#4 -1513 892#0 199#1 1299#4 -472#0 1300#2 -1420#0 238#0 1244#4 -1244#1 357 487 -1413#3 103 1478 -469 1408#2 1309#3 -1408#3 391 -941 -1287#0 1277#4 462 -1303#1 468#5 -461 1293#2 473#0 1420#3 1289#0 468#6 939#0 -228 -1293#1 165 238#1 -1297#0 1291#3 376 1294#0 981 -1293#0 1293#4 -1303#0 -474 -1299#4 -1408#2 -939#1 -199#1 461 493#3 1413#4 496 1247#4 469 911#1 -338#1 1296#3 851#2 -1283#2 -1247#2 -368#0 -1276#2 243 -1270#2 1296#4 -460 977 -1420#3 460 425 -499#2 241 1309#4 1270#1 -1413#1 -491#1 -936 97 468#1 892#1 1309#1 1408#5 -1295#0 914#0 1270#3 -942 1304 -1274 464 1300#4 -1283#3 -462 -939#0 476#0 476#1 -1277#2 493#2 -1276#1 470 -1247#0 999 -1247#3 494#0 -1289#1 1298#1 1309#2 337 -1288#0 -1299#2 -336 915#0 1300#1 -1293#4 1509 -448 -910 -1309#2 -889#0 1246#1 1292#1 -876 -937 480 1303#1 166 1303#0 -1309#0 -495#1 1289#2 489#1 -1300#4 -338#2 355#1 -1244#3 1299#3 -1291#2 453 -1300#0 -1408#4 1286#1 1413#2 -981 495#1 936 -1247#1 -1285#1 -939#2 -337 -1289#0 -1287#1" id="14"/>
    <taz edges="164 -1270#0 -1264 1269#1 -911#0 1275#2 421 1267 1270#0 420 -1269#0 165 -1415 1264" id="19"/>
    <taz edges="-1264 -1421 1421 1265 -1265 1264" id="18"/>
    <taz edges="511 -636#0 884#1 -478 -1252#4 1296#0 859 258 -1337 134 562#1 -1315#6 -1298#0 1302#4 -1338#1 -562#1 -1308#0 1333#2 1302#5 562#4 -609#0 -1312#1 -598#1 -890#1 -979#3 1310 265#0 625#1 -1349#0 248#1 -1338#0 -944#3 1312#2 -730#10 624#1 601#2 717 -245 -944#2 609#2 -1369#3 246#2 -1331 -610#1 247#1 728#5 -1311#2 -1343#4 504 -1373#1 -1302#2 -1419#7 478 -890#2 645#2 562#0 -1373#0 986#0 533 641#2 -637 1348#4 -520#5 -617#0 -249#0 1250#5 646 369#0 1311#4 1302#3 636#1 1340#5 614 -1251#0 -1330 -1332#5 1369#2 562#2 563#0 617#1 1348#7 917#6 -24 1332#8 884#0 -954#2 -917#0 541#1 -416#0 1327#1 563#5 -1377#2 -1252#9 -917#6 -1368#3 -958 1256#7 -1248#12 -533 1315#6 1343#1 508 1370#1 647 1340#4 -1351#1 -601#1 970 -607 1366 -1252#0 1331 -1486#3 567#1 1368#4 -1302#6 1497 598#2 -1302#14 -1377#11 1250#0 1351#1 -1420#1 -542#1 -1302#12 -394#5 601#3 954#0 959 961#1 -636#1 -917#5 1340#2 960 -1368#5 1351#2 -522 1376 -1348#1 -1327#1 1302#1 520#0 860#4 988 598#1 1311#2 1343#0 -549 1341#10 -890#5 1377#3 509 -1342#0 524#0 -1311#1 -1347 -1348#6 -502#0 -598#2 -520#9 623#0 890#5 -890#3 -246#0 -1368#1 -1496 -143#0 -520#1 -961#1 1341#9 248#0 -1368#0 599 338#1 -541#1 444#2 -509 954#3 -647 249#1 -1367#2 1252#6 -1411 543 -1302#13 675 -1332#3 1349#2 1342#2 1586#1 394#2 -1377#4 603 -394#2 529#0 626 611 -542#0 1313#1 264 -339 444#0 -1308#2 -507#0 1348#5 1369#3 1367#0 -1377#1 728#3 1252#10 -730#9 378 -1497 -1310 -610#0 1369#0 -258 729 -525#0 -728#4 1308#2 1349#3 503#2 855#0 881 -924#1 -613 -730#8 -917#2 -529#0 582#10 -860#1 -944#1 -1370#4 1341#7 -1338#7 1341#16 1302#13 -265#0 -1338#9 -746#0 -562#2 -1302#10 1349#1 262 -508 520#1 1346 -623#0 1377#2 1586#0 627#0 -567#0 -855#0 -622#2 1324#3 -514 -624#1 1377#0 613 730#6 1324#2 -728#5 -1252#7 346 -1302#4 634 -1377#5 -641#0 -1341#13 1377#5 541#0 1341#6 -611 168 -1351#3 -963#0 1337 -1332#0 503#0 -986#0 519#2 -1302#9 -615 -1250#5 -1308#3 -622#0 850#4 -543 -1302#8 1345 850#2 1343#5 -416#1 -1320 683#0 -206 537 -1348#7 -980#0 -1338#8 -599 1324#1 -986#1 1315#3 890#1 -1332#8 -248#0 -1343#3 -980#1 -1313#0 1250#4 1324#4 1341#11 444#1 849 917#5 980#0 -1341#0 1343#4 -249#1 520#3 -1367#0 607 623#1 -444#1 627#2 1338#4 1351#4 917#7 -1332#2 -352 -645#1 563#3 -624#0 860#0 -892#0 -646 -550 -444#0 850#0 616 -918 1334#0 -562#0 1423 1414 -1412#1 730#9 -1341#6 1302#14 1486#1 353#0 1375 1350 -1296#0 -1312#0 -1252#6 -1328 -1302#0 -353#0 1377#1 -378 -605 917#3 954#2 -849 -494#3 -1340#3 -1586#0 -1341#4 -246#1 615 920 -1377#10 1493 -1349#2 -917#8 730#8 -263 1333#3 1348#1 -1302#5 -1252#1 1341#8 562#3 -1498#0 -520#4 -1341#16 986#1 520#2 -1341#7 -601#2 -960 1315#5 1420#0 1338#9 -541#0 -746#1 -645#0 544 1340#1 1371 -1248#11 -520#8 1419#9 -1369#2 -622#1 1367#2 1370#5 -1314 1297#0 507#1 608 -1302#1 -1312#3 -1375 -954#1 266 953 -1368#2 594 520#9 -503#2 -519#2 1344 595 645#1 978 896 -1252#11 25 -562#4 416#1 951 1252#2 -1250#0 -954#3 605 1374 963#1 -1340#4 1308#5 -1338#4 525#0 -1338#3 142 1332#7 416#0 855#1 890#4 1367#1 -562#5 1252#9 855#2 1329 -265#1 522 -917#3 627#1 1315#4 -1376 1377#7 1412#1 1312#6 -1332#7 1341#15 -494#4 1496 -1370#1 -1309#5 -546 353#1 860#1 1252#5 1250#1 1373#1 -369#0 1312#4 531 -1312#2 -860#0 -1252#8 -683#0 1370#2 -1329 561#1 -1256#7 -503#4 -544 850#3 601#1 -728#2 1351#3 979#3 -1377#0 338#2 -1315#0 -1315#3 -1336 -641#2 1302#7 507#0 1340#3 -1338#5 606 -1341#5 582#11 394#1 -503#0 1302#9 633#2 -26 1332#1 1341#13 1334#1 625#2 1341#5 -890#0 728#2 -1581 1308#0 -1309#7 520#6 -1348#4 -1498#1 428#2 247#2 1308#3 -609#2 -1343#5 563#4 -510 925 735 963#0 -855#1 1338#3 863#1 979#0 980#1 1488 -444#2 -1350 -501 -1493 1252#0 503#3 -1585 1338#1 -1348#3 1251#1 -369#1 -507#1 -1332#4 503#4 -1341#11 1377#10 532#1 1312#5 1369#1 746#1 633#1 536 -1367#1 -1339 932#0 -1488 1370#4 -1252#2 1377#11 1498#1 263 637 -529#1 -505 636#0 1368#2 -601#0 169 1328 -1257 -1341#9 -633#2 -1250#4 -957 1333#0 1486#3 1338#8 -1377#3 385 563#1 890#3 -512 1373#0 1250#3 -511 -905 -944#0 745 -562#6 1309#5 -246#2 -1369#1 -353#1 1377#8 561#0 -1315#4 -536 -753 1327#0 -1343#2 265#1 369#1 917#2 1338#5 -547 -262 -626 -1377#7 -706 1252#11 1315#2 1377#9 338#0 -640 1308#1 641#1 1498#0 -1365 -562#3 1251#0 -1341#10 -617#1 524#1 631 728#4 944#1 1419#7 1326#0 -338#0 1342#0 550 -476#0 520#4 520#5 561#2 -1340#2 -520#2 510 -988 1336 1348#0 944#3 1365 246#1 -917#7 428#1 957 1252#7 979#2 753 -520#0 609#1 892#0 -582#10 -1315#2 1334#2 1368#6 529#1 -1420#0 -396 -728#1 1302#12 1368#5 641#0 1252#4 1330 1332#4 347 -503#3 1324#0 597 1377#6 862#0 1585 1335 -890#4 143#1 917#8 -25 1486#2 962 -641#3 -1370#2 -350 -1370#3 -1346 -519#0 645#0 924#1 -1341#3 519#1 -601#3 -1412#0 -1486#0 917#0 1332#6 -1342#1 -385 -1579 -609#1 -614 1420#1 1486#0 1308#4 -641#1 1341#14 427 549 -855#3 1257 512 945 -884#0 -1343#1 1326#1 -1302#7 -503#1 1370#3 918 1307 1341#12 622#2 1420#3 -1332#6 494#4 860#3 351#1 -1338#6 -963#1 1370#0 351#4 -394#3 1338#2 -1348#5 917#4 -1315#1 622#1 1326#2 1302#6 -1302#11 -1370#5 -1343#0 850#1 -1297#0 503#1 -1327#0 1309#7 1412#0 979#1 1341#0 1341#1 -1312#4 -1302#3 -602 -628 641#3 -534 1312#1 -945 981 1339 534 562#5 -1252#5 -1311#0 -1377#6 -728#0 1311#1 -535 -1340#1 649 -1252#10 628 -855#4 1311#3 -346 -531 1250#2 1342#1 -338#1 1411 1326#3 -1309#6 -1311#3 1302#11 862#1 1248#11 1332#2 -347 1349#4 -532#0 -1335 547 -1345 -1341#15 -1344 -730#7 -917#4 -1308#4 -1420#3 -524#0 954#1 617#0 246#0 1302#2 -979#2 -1341#8 1312#3 -1312#5 -1377#9 352 111 1302#8 -1587 -730#6 1348#2 1338#7 -881 247#4 -961#0 -859 1315#0 -1351#2 -1315#5 -266 -1377#8 -855#2 -979#1 -635 -1348#2 -537 1581 640 860#2 -617#2 -1251#1 562#6 563#2 1343#2 -1250#2 622#0 -1341#1 494#3 -520#7 505 1248#12 855#3 -728#3 -1307 -1349#3 -1368#4 -645#2 520#7 701#2 476#0 -1349#1 -1349#4 351#3 476#1 730#7 -524#1 -606 -962 -608 1587 709 -1414 1252#8 520#8 1338#0 863#2 -597 -633#1 701#1 610#1 -384 602 1315#1 1341#4 -603 -951 394#5 351#2 1320 1333#1 1338#6 1368#3 644 890#2 -616 -1341#12 -954#0 609#0 249#0 503#5 1332#5 1341#3 394#3 -1586#1 -1348#0 1332#3 1255 1343#3 542#1 961#0 -1332#1 -1338#2 519#3 -920 1419#8 396 -1250#1 -979#0 -520#6 -896 1377#4 -1486#2 -1341#14 -860#3 -1372#0 -1250#3 514 -519#1 -338#2 -612 612 1579 546 -520#3 1368#1 855#4 535 567#0 -1486#1 -860#2 26 944#2 1348#3 1348#6 617#2 932#1 -981 1349#0 958 1302#10 636#2 -1342#2 919 247#3 529#2 1252#1 -394#1 -1369#0 447 728#1 -1340#0 -959 -970 1309#6 -1308#1 500 -1370#0 -1419#8" id="13"/>
    <taz edges="1400#3 1403#2 -1404#26 -812#0 -830#2 821#0 -374#0 -1517 829#7 819#6 -823 -831 1401#0 1402 -1401#3 292#1 856#2 829#6 929#0 1394 298#3 -1404#9 -829#2 -1396#2 -827 223#6 1404#10 811#0 1404#3 815#2 1404#24 1400#1 -819#1 -818#1 -817#0 814#0 -223#6 1400#2 -1402 -301 1378 1390#3 -340 -315 902#3 -836#0 -1381#0 1407#11 831 -812#1 -1491#1 195 -1400#0 -162 -828#1 1491#1 815#1 -929#5 790#1 1382#0 1404#23 -1404#18 -807 -819#4 -814#0 301 1390#4 -804#1 1407#6 1516#1 902#4 1260#0 -1407#11 297 -300#0 830#0 1391 837#0 1516#0 -929#0 1404#20 -811#1 -833#0 1390#1 -1407#7 -824 -1397#0 306#1 -772 -931#1 -829#3 -819#3 856#0 927#3 -821#2 1574 -292#1 1404#12 1580 443#1 -1263 -1407#3 1407#8 223#5 772 839 -223#7 -1514 -1390#0 223#0 1390#0 298#0 295#1 900 812#2 1355#0 -829#8 856#1 904#1 1491#3 -790#1 927#1 -1261 -1404#24 908 1262 1393#0 -1378 -830#0 1405#1 -1407#6 809#1 -1580 929#7 -306#2 808#0 895#1 893 -1404#10 -838#0 826 -1505#1 902#0 -1404#7 295#3 -856#0 1407#1 816#2 -1404#16 -1404#12 -808#0 -1382#0 -927#1 -877 812#0 -1490 929#4 1515 -223#4 173 318 -318 1397#0 895#2 751#1 819#8 790#2 295#0 -1389#1 -1390#5 818#0 -304 -1396#0 299 -1405#1 -819#0 -1400#3 -810#1 1399 1492 -1383#1 829#2 -842 -834 304 931#1 -1382#1 -1407#5 -1404#5 830#2 811#1 -808#1 -826 1395#0 -1404#6 -816#0 1395#1 -814#2 -374#1 -1516#0 -839 -300#1 -223#8 -929#3 -829#5 822 305 -296 -790#0 814#2 223#8 -821#1 -1407#1 -931#0 -815#1 1383#0 192 -1391 814#1 -1404#13 115#1 1401#2 808#1 819#4 1404#1 -1390#2 -821#0 1499 296 -830#1 -297 -305 300#3 838#1 -1390#3 -929#6 1258 -837#2 1260#1 -1400#1 -816#1 -819#7 1397#1 -1404#3 306#3 -835 -223#0 162 -751#1 -930#0 1404#8 -829#0 838#0 730#0 819#2 213 315 -929#4 1401#3 828#0 -1404#17 1404#5 -790#2 1491#2 -836#1 825#8 -306#3 -1401#0 1404#27 1404#9 931#0 -904#0 -223#2 -1396#1 1263 1381#1 -194 -1516#1 992#0 -1407#4 1396#1 816#1 223#10 -819#8 -927#3 815#0 -1403#1 -1401#2 669 -1491#2 -819#2 -669 -904#1 -809#1 -1393#3 -1404#23 1381#2 -829#1 -856#2 1404#25 1404#26 829#3 -730#0 -828#0 824 1407#5 1396#2 -927#0 -1404#1 -1258 -1260#0 295#2 -306#0 -822 -929#2 -819#5 -1515 -815#0 -1393#0 -1404#25 298#2 1390#2 -803#1 1389#1 -856#1 804#2 803#1 810#1 1398 840 -223#5 -837#1 -1401#1 349 -929#7 1404#2 -1404#2 843 812#1 -10 -810#0 -837#0 902#1 -1390#1 -1404#8 298#1 1396#0 927#2 -1400#2 -992#1 -1407#0 790#0 -292#0 -223#9 435 836#1 -1381#1 1383#1 -814#1 -815#2 819#3 -1491#3 895#3 929#1 817#1 -1383#0 819#1 927#0 1393#2 1404#21 -1355#0 -115#0 -1492 -306#1 -1390#4 -1499 1401#4 340 -829#7 1407#4 1407#2 823 834 1404#13 1404#7 306#2 904#0 1401#1 1404#6 -1404#11 -903 -1394 -818#0 292#0 835 -223#10 830#1 223#1 -804#0 827 903 -1399 1578 223#2 -1403#0 -192 300#1 1404#16 -829#6 -1404#0 828#1 804#1 -1395#0 -927#2 992#1 194 909 300#0 -300#3 -992#0 1407#9 821#2 -1491#0 223#4 -223#1 819#0 829#5 894 1390#5 -1404#21 819#5 929#5 -195 837#1 113 -829#4 -1260#1 821#1 816#0 787#5 819#7 -223#3 1404#17 374#1 1404#18 223#7 818#1 833#0 443#0 829#4 -1404#19 -1397#1 -1262 930#0 1393#3 -804#2 -930#1 -843 -819#6 829#1 1407#3 -300#2 1505#1 1403#0 1261 929#3 929#6 -811#0 -840 995 374#0 -1505#0 1381#0 -1398 -929#1 1403#1 -817#1 -1393#1 1392 829#0 -900 223#9 -1407#2 -1392 1407#0 807 930#1 -1404#20 223#3 836#0 1393#1 1382#1 -994 -1407#9 1372#5 1404#11 1407#7 -1403#2 -1393#2 902#2 -1404#27 817#0 1404#19 10 929#2 -1407#8 300#2 829#8 837#2 1505#0" id="12"/>
    <taz edges="976#1 -636#0 -882 381#0 763 1361#1 377#1 -1315#6 1325 1372#4 -1517 -1338#1 633#0 1384#1 -397 -897 -659#0 -979#3 1355#4 -1256#2 -762 1256#0 -666#5 265#0 270 1380#1 -1349#0 -1363#1 -974 -825#5 1489 251 1419#5 -1338#0 -538#0 -1380#1 -666#7 1570#1 825#2 -1384#2 -538#1 -386#1 652#1 770#1 -1248#4 -1369#3 762 -1502#1 -758 1494#0 667#0 1573#1 969#1 882 343 -1373#1 -1419#7 645#2 -756 -751#0 272 848#3 -1373#0 -818#1 -269#2 -483#0 1256#2 -1321 641#2 1348#4 -637 -1256#1 218#1 483#7 -643#1 -1319#1 -976#1 646 -377#1 636#1 1387#1 -1332#5 1369#2 993 -392#2 757#1 -24 373 1502#0 984#0 -1318#2 310#1 -825#3 1332#8 928#3 -1353 -954#2 -1248#7 -540#1 541#1 -1385 1254 1352#1 539#1 -235 1384#6 -1377#2 1256#7 -1368#3 -555#1 -958 -983#0 -1248#12 1315#6 647 -1419#6 652#2 1370#1 -1351#1 970 1248#14 -922#0 671 -760 381#1 379 1248#0 -1248#3 1368#4 1497 -1377#11 -445 1351#1 1372#3 477 556#1 954#0 -1384#1 -542#1 -757#1 1419#6 959 -636#1 961#1 -1368#5 -952#0 -1248#10 1351#2 1363#1 1516#1 1376 759#2 269#2 1321 290 657#1 -1348#1 -1417#0 -27 848#4 -381#1 988 897 1317#2 825#7 -549 1377#3 -825#2 1516#0 825#6 -1347 -666#1 -985 252 659#0 1357 -1368#1 481 -143#0 -1384#0 310#0 540#0 -1352#0 -1372#2 -961#1 1384#3 -1368#0 -1379#5 666#8 749#1 -390#0 -541#1 922#2 306#1 954#3 -647 -991#1 752#6 1248#13 899#1 552 -1411 543 483#3 -848#4 -287 1349#2 -1377#4 603 -539#1 -1380#0 922#3 -825#7 -655 1363#0 1574 -752#6 767#0 1355#2 -542#0 236#1 264 611 -538#3 1369#3 483#4 928#6 -1377#1 -1316#1 -666#3 668 378 1316#1 -1497 -442 -1355#3 1369#0 -273#0 666#1 -1319#0 950 -1372#3 -653#1 -643#0 -1362 -388 -765 1417#0 -1514 -310#1 1349#3 -672#0 1355#0 881 398 -652#1 386#1 -653#0 1248#4 -1322#4 -392#0 964#1 218#0 555#0 556#3 -1370#4 -984#1 -1384#6 1500 -965 387 -759#2 -265#0 672#2 -972 273#0 949 -1317#2 -752#0 -1489 -486#0 -1355#6 809#1 -746#0 -928#3 847 1349#1 808#0 -1355#5 -553 1377#2 738 -272 538#3 -1355#9 1319#1 1355#11 -538#2 1418#2 663 1380#0 553 1377#0 -738 486#1 1355#10 1318#1 -946 -1379#4 1322#2 1363#2 -969#1 267 346 634 1355#1 -1377#5 -1317#3 -808#0 -641#0 666#3 1377#5 541#0 -390#2 1355#6 -611 846 -1351#3 1515 -963#0 173 -386#0 1316#2 -984#0 324 652#0 770#0 1248#6 825#3 -1360 -964#1 -543 1248#1 1248#5 1345 639#0 310#3 751#1 -922#2 661 -1320 537 928#0 -344 1315#3 -1332#8 -757#0 899#0 1418#1 845#4 302 390#1 -1316#2 672#1 -763 -373 -380 1351#4 -662 -645#1 -392#3 1355#7 -646 -550 755 616 -1418#1 1355#8 -390#1 -1355#2 1248#2 388 1414 -1412#1 -324 656 967 922#4 -761 286 268 -891 1375 766 1350 1417#1 1256#5 -956 1494#2 1317#3 666#7 1377#1 -1248#8 954#2 -377#2 -378 -975 -987 1410#0 969#0 926#1 -1516#0 -847 659#1 -1377#10 -1419#0 1493 308 -1349#2 1248#9 754 -263 -922#1 1348#1 -652#0 643#0 757#0 556#2 -989 -1500 483#6 764 -672#2 -848#2 -928#0 192 1315#5 -960 390#0 -991#0 642 -541#0 -645#0 269#0 544 1385 -342 1409 1371 -1253#0 -1248#11 1419#9 370 -1369#2 -922#3 1384#4 845#1 -1357 1370#5 883 952#1 -666#0 483#1 382 -1375 953 -947 -954#1 266 -770#0 392#2 -1368#2 -949 -668 -1361#0 221#1 -556#2 -752#2 645#1 825#1 978 896 25 559 951 539#0 -666#2 429#2 -954#3 1258 1374 963#1 -398 1503 -648 1332#7 -1384#4 428#0 923#0 -477 1317#0 310#2 -670 -751#1 964#0 -265#1 1355#3 1379#7 1379#2 -1248#9 -825#6 928#5 1364 1315#4 -392#1 -481 -1376 1377#7 1412#1 658 1312#6 -1332#7 -730#2 1386#1 1253#0 960 -1370#1 -546 -1248#0 -967 -1249 213 -540#2 1373#1 848#2 1370#2 -638 -1504 486#0 -1256#7 -544 -1318#0 -1248#2 820 -483#4 -922#4 825#8 1351#3 979#3 -1000 -1377#0 554 928#2 -1248#1 -1315#0 1248#7 946 -825#1 -554 926#0 -1315#3 -641#2 752#0 974 -1379#2 -441 -663 648 -1516#1 -1256#6 -555#0 -269#1 -556#3 -633#0 540#2 -26 -654 -770#1 633#2 955 -767#0 650#1 -993 -325 -846 -1581 -971#1 1248#3 1256#6 1316#3 1380#2 -1348#4 -639#1 752#2 -1384#3 965 1410#1 -752#1 -950 -1316#0 975 963#0 -1355#12 -766 -809#1 -387 750 1379#4 979#0 -289 -1350 -1253#2 -1416#1 -389 1256#3 971#0 -1493 639#1 983#1 -948 1338#1 -1410#0 -1348#3 1494#3 1504 313#1 -1419#2 -899#0 901 -642 -1256#3 -749#1 -1332#4 -1502#0 -180 1377#10 1363#3 1369#1 -764 271 633#1 170 1353 947 -545 -1258 -1363#2 982 1370#4 1377#11 -1418#3 -1352#1 637 263 -306#0 538#2 -323 1358 323 636#0 -1503 1368#2 673 1379#5 -269#0 -1515 -1257 -1363#0 -381#0 -556#1 -633#2 217 -957 987 385 -657#1 -483#1 -1377#3 389 651 1373#0 -952#1 -1355#8 437 971#1 991#1 -673 254 654 -905 769 1362 1502#1 -1410#1 -1369#1 -971#0 -666#8 -1316#3 1377#8 253 -1256#5 1256#4 -1315#4 265#1 -753 -483#2 -558 643#1 1248#10 -270 171 -966 -547 1253#1 -262 1248#8 -1377#7 -1322#0 -1384#5 1315#2 -767#1 1377#9 -559 641#1 -640 1494#1 983#0 -1419#5 -973 1419#7 968 -1317#0 1316#0 180 -539#0 548 288 -657#0 550 -1358 -983#1 -928#4 377#0 1354#1 538#1 752#1 269#1 -988 325 991#0 1348#0 -1322#2 1322#1 428#1 979#2 -1248#6 -379 957 -1512 -1256#4 753 751#0 -1315#2 1368#6 446 1368#5 -1419#1 641#0 845#2 956 1332#4 347 -308 -658 758 -485 1419#3 380 -1354#0 -372 1377#6 -667#0 -1355#0 759#0 845#3 143#1 483#5 962 -1419#4 -25 345 -928#6 -976#0 -641#3 -1370#2 -651 1379#3 445 -251 -306#1 -1370#3 -1417#1 -820 645#0 666#0 985 1569#1 1384#5 984#1 -1412#0 484 -656 -749#0 1332#6 -650#0 -385 -1579 644 -955 760 -382 427 -641#1 -759#0 -1386#1 372 549 1257 557 670 921 922#1 945 556#0 1370#3 1354#0 309 -752#3 -1332#6 -671 -928#5 1372#2 -1248#14 -1379#0 756 -551 665 -963#1 1370#0 -390#3 1338#2 -1355#4 -377#0 -1318#1 -1315#1 1578 989 -483#5 -899#1 -1248#5 -1386#0 1253#2 928#4 -192 1571#1 390#2 -1370#5 1322#4 767#1 922#0 1412#0 392#1 979#1 -556#0 641#3 289 -1372#4 -534 -982 1256#1 -945 -1253#1 442 483#0 534 -728#0 -1377#6 666#2 649 -1256#0 538#0 1379#6 1384#2 -346 -252 1419#2 287 -809#0 558 1355#12 386#0 -267 -446 767#2 909 1411 752#3 430#1 1379#1 1322#0 -273#1 1248#11 545 1349#4 -347 -750 -253 -532#0 948 976#0 540#1 547 -848#0 -1345 749#0 664 397 -1355#7 27 954#1 -664 -901 -979#2 -1363#3 -225 1322#3 -767#2 -667#2 -1377#9 485 -1416#0 -969#0 1348#2 -1322#3 -666#4 -881 -961#0 1315#0 972 -1351#2 -1315#5 -483#3 -266 -1377#8 1581 -979#1 -635 -1348#2 -537 1419#0 640 768 -557 -286 -268 483#2 1248#12 -1418#2 -484 -310#0 -1349#3 -1368#4 -645#2 -768 -548 1318#2 -964#0 -1349#1 -1349#4 1384#0 880 -254 -1379#1 -483#6 923#1 -962 -1414 -310#2 1338#0 1356 -968 -633#1 -1379#3 -343 -1505#0 -384 -639#0 1315#1 995 1419#4 -603 -659#1 -951 1320 765 429#0 1368#3 -921 1419#1 -616 273#1 -848#3 -954#0 825#0 667#2 1332#5 274 -672#1 -1348#0 1318#0 -769 1355#5 542#1 961#0 -1338#2 666#5 -652#2 -848#1 1419#8 -1355#11 -825#0 -540#0 653#1 952#0 973 -661 -665 -979#0 638 -896 1377#4 771 344 -1322#1 -1379#6 1000 429#1 -1372#0 672#0 825#5 1355#9 342 666#4 958 -271 390#3 1512 -345 -994 1368#1 1579 546 -1355#1 1372#5 26 -1419#3 -288 650#0 1348#3 -755 303 307 662 848#0 848#1 1349#0 1418#3 636#2 555#1 -1248#13 1319#0 377#2 -1355#10 341#1 436 -1369#0 966 -660 -970 -959 1416#1 1505#0 657#0 392#3 -1370#0 -1419#8 -928#2" id="11"/>
    <taz edges="928#5 976#1 1384#5 -1384#6 763 1386#1 1405#1 -1386#1 -1517 -762 1380#1 -1505#1 -928#5 -974 820 -1379#0 -922#4 1380#0 -1380#1 1570#1 1578 770#1 -1386#0 762 1571#1 926#0 974 1573#1 -441 -770#1 -196 770#0 218#1 1380#2 -976#1 1387#1 -1405#0 430#1 844 -1387#0 -1405#1 976#0 302 -1385 1384#6 -763 -180 922#4 290 217 -1388 926#1 1569#1 437 923#1 1505#1 754 172 -1505#0 1406 -1384#5 1385 1384#4 -922#3 883 180 -1406 922#3 -1380#0 -770#0 1574 771 928#6 -1512 1512 303 -1514 196 -1384#4 923#0 -928#6 -976#0 1505#0 -820" id="17"/>
    <taz edges="274 845#1 666#2 -922#3 1364 1500 218#1 -666#0 180 382 434 310#3 666#5 -1503 -382 922#3 217 221#1 430#1 -1322#2 216#1 672#0 -666#3 -666#5 1569#1 -666#1 437 559 666#4 390#3 430#0 845#4 308 -666#2 429#2 -922#4 666#1 950 -390#3 1570#1 307 845#2 1322#2 1503 922#4 -308 -672#0 172 -1500 -180 666#3 1322#4 -1322#3 436 1322#3 -559 -1322#4 -324 218#0 -666#4 324 666#0" id="16"/>
    <taz edges="-891 484 -392#1 -481 1318#0 983#0 -882 1316#0 483#7 169 392#2 -1316#0 -392#2 -1316#1 -484 1318#2 1316#1 -1318#2 -1318#0 481 486#1 1318#1 -1318#1 -983#0 -485 882 -477 392#1 168 485 -392#0 -982 477 982" id="15"/>