<?xml version="1.0" encoding="UTF-8"?>

<!-- 
    Monaco SUMO Traffic (MoST) Scenario
    Copyright (C) 2018 
    Lara CODECA

    This program is free software: you can redistribute it and/or modify
    it under the terms of the GNU General Public License as published by
    the Free Software Foundation, either version 3 of the License, or
    (at your option) any later version.

    This program is distributed in the hope that it will be useful,
    but WITHOUT ANY WARRANTY; without even the implied warranty of
    MERCHANTABILITY or FITNESS FOR A PARTICULAR PURPOSE.  See the
    GNU General Public License for more details.

    You should have received a copy of the GNU General Public License
    along with this program.  If not, see <http://www.gnu.org/licenses/>.
-->

<tazs>
    <taz edges="421 420" id="33"/>
    <taz edges="1593 464" id="45"/>
    <taz edges="-913 -933#0 1281 456" id="34"/>
    <taz edges="-891 486#1" id="44"/>
    <taz edges="1364 310#3" id="43"/>
    <taz edges="430#0 216#1" id="32"/>
    <taz edges="1380#0 -1380#0" id="42"/>
    <taz edges="-1388 -1387#0" id="41"/>
    <taz edges="1406 -1406" id="31"/>
    <taz edges="-683#0 -866 -730#3 -686 -531 -562#6 -582#3 15#1 683#1 599 -676 -819#0 1334#0 701#2 732#5 -804#0 -807 560 597 -787#3 582#1 803#1 736 588#1 531 791#1 582#8 -803#0 -864#1 727 -1586#1 -562#1 730#9 572#1 15#6 852 612 -1341#16 -1341#8 285 1250#0 -918 439#2 10 802 497#1 1587 514 -292#2 888#4 687 275 394#0 752#0 202 863#1 284#0 -1302#12 -1341#0 163 683#3 -730#4 879#2 455 -856#0 -13#0 795 617#1 276 -617#2 -694 717 1372#5 -293#4 -689 713#1 745 604#0 -628 622#3 -1369#2 174 -1327#0 -696 -494#1 -609#1 -744 -514 561#2 257#0 902#3 -1408#7 366#2 -292#1 -562#5 752#2 -707#1 -1404#0 -507#1 686 816#2 623#1 -1341#7 -1342#2 728#3 -1482 1486#2 211#1 570 714 818#1 -1341#9 878#1 277 584#0 244#1 -795 -350 741#1 1326#2 -394#1 734#0 748#6 819#0 -579#4 -394#0 -1308#4 563#3 -917#6 1480#1 -811#1 -854 -598#1 563#2 594 189#0 -572#2 593#4 519#1 -858#1 519#3 -779 744 932#1 583#0 707#0 627#3 282#1 294#2 282#2 -494#0 -593#4 -529#1 -888#4 -752#2 -737#0 -593#0 -294#2 705#0 -624#1 -282#0 746#2 732#1 863#0 1308#3 -783 -359#0 -1256#4 495#0 711#1 499#1 579#2 888#5 -787#1 580 -582#8 -581 -601#3 722 863#2 -691#2 -1332#0 1343#1 723 -706 -618#0 -501 800#0 -917#5 879#11 -513 -564#1 675 620 1498#0 -1586#0 746#1 1332#1 857#4 593#1 -860#1 282#3 -520#7 811#1 -226 -790#2 800#2 -699#1 697 -1479#0 1341#6 791#4 -1343#3 226 879#8 525#0 878#3 -730#0 929#6 683#0 705#1 103 583#2 619 496 734#1 739#1 240#0 -1342#0 1303#2 726#0 -582#1 -496 358#2 -375#1 -790#1 -855#4 -242 -1498#0 856#1 -1341#1 693 -1346 -1252#1 743#0 359#0 -712#1 -1252#0 -519#2 255 -582#10 1374 803#0 809#1 247#4 185 362 394#1 351#3 -294#1 366#0 908 705#3 791#3 -604#0 515 1420#0 -568 -572#1 622#0 1252#1 440#3 1341#5 699#0 1341#7 -562#4 -1486#0 737#2 439#7 205#1 -730#2 528 730#0 1479#1 -184 -579#3 618#1 1250#3 715 -520#6 351#2 -907#0 -728#1 -602 783 592#1 -818#1 735 804#1 -520#3 294#0 -787#4 590#1 -592#0 -816#1 1326#0 197 352 682#0 1250#2 856#0 733#3 205#0 -752#4 -1341#14 592#3 520#9 1341#8 529#0 -1372#2 360#3 -858#5 -877 705#2 689 888#1 -520#1 -811#0 1341#3 1341#16 -588#1 -1302#10 440#2 -852 530 791#5 857#2 1486#1 592#2 805 -781 -502#1 108 296 609#2 1491#4 1341#4 -713#1 367 729 907#2 725 604#1 710 -575#1 1480#2 703#2 627#2 -884#0 624#1 213 -293#0 929#7 855#4 743#1 -793 691#5 732#4 780 293#2 685 -1256#2 888#3 -816#0 1327#0 282#0 816#1 287 520#2 1308#0 728#1 280 707#1 248#1 -702 -730#1 855#3 -1341#5 691#2 298#1 691#0 -703#0 -183 -741#0 -786 678 1324#1 -590#1 907#1 815#1 -890#4 523 -291 562#0 816#0 -806 319#0 1256#1 588#2 -366#0 1484#1 -705#3 187#1 583#1 -361 618#0 -582#6 1341#9 -296 -691#0 690 574 -529#0 859 358#1 1586#0 716 -699#0 1328 -369#1 566 -739#2 524#0 -578 1341#1 205#3 505 257#2 394#2 -191 895#4 785 1341#13 565 -617#5 582#4 443#1 712#1 579#3 -710 902#1 529#1 291 919 -679 354#1 739#3 576 864#1 -787#2 -776 734#3 609#1 357 700#0 -733#1 513 -1307 567#1 -726#0 572#2 752#1 586 -917#3 790#3 579#5 879#5 -394#4 -623#0 497#2 -730#8 561#1 15#7 -682#1 -520#8 1492 733#2 -278 -802 1483 -917#2 -293#2 562#5 -520#4 593#2 617#2 -860#0 -394#3 -294#3 564#2 -856#2 -691#5 -575#0 589 -815#1 1341#15 741#0 -929#7 593#0 -809#0 -1341#4 775 708#1 878#2 858#5 719 585#1 1308#2 317 -747#2 -683#2 360#2 439#9 569#4 -691#4 -499#2 -739#1 316#1 -1332#1 394#3 -521#1 1491#1 806 1485 -855#1 192 -617#3 15#4 601#2 -725 1343#3 -888#5 860#0 694 1307 -743#1 703#1 373 -859 -574 617#0 -855#2 -282#3 447 794 1333#0 17 -373 628 -294#4 865 787#1 -1372#4 -773 244#3 -622#0 -604#2 885#1 864#2 -617#4 -416#0 -524#1 494#0 -1343#0 -276 712#0 787#0 -1372#3 443#0 1479#0 -727 793 279#1 630#2 1333#1 -201 -752#0 855#1 416#0 -1250#2 -917#8 -279#1 -502#0 1486#0 909 617#3 349 679 1365 -805 440#0 355#2 -579#5 -785 613 917#8 -1341#12 563#1 888#0 569#3 -885#0 -721#1 -592#1 -812#1 -1367#0 -573#0 858#1 -1486#2 1324#0 730#2 894 728#4 855#0 730#1 15#0 -617#0 730#4 1346 858#4 -741#1 183 790#1 885#0 -192 -788 691#3 -564#0 1488 519#2 -1492 582#7 -917#7 293#4 -1250#3 1341#11 495#1 -588#0 502#2 1327#1 -505 -583#0 721#0 -815#2 788 -1480#2 773 -800#0 1341#14 705#4 569#0 804#2 -499#1 278 294#1 -737#2 -582#7 -499#0 -573#1 -519#1 -1490 812#2 13#0 581 1371 -521#0 -708#0 -748#6 12 -520#9 320 579#1 860#1 247#3 579#6 -719 -907#1 -1256#1 932#0 -98 791#0 -580 -739#0 -867#1 -723 111 -615 748#4 684 -858#4 -1308#1 562#6 -1480#3 -592#3 507#1 813 -1480#1 -622#1 630#3 895#2 240#1 798 -1328 -812#0 -609#0 524#1 1302#10 -860#3 812#0 294#4 -1483 -752#5 -721#2 292#2 -407 861 703#0 789 726#1 -495#1 -1491#0 615 211#2 860#3 -394#2 -780 790#0 588#0 1324#2 732#3 -632 696 -804#1 879#4 -728#2 752#5 -363 516 625#2 1334#2 730#5 -610#1 854 -711#1 355#1 15#3 604#2 721#1 -202 -353#1 360#4 184 389 895#1 732#0 -817#0 520#5 573#1 97 -748#4 178 360#5 361 917#5 318 -367 595 494#4 -1343#1 188 13#1 -794 -813 -582#9 -383 -698 358#0 739#2 -589 584#1 692 -562#3 -748#1 -1341#10 699#1 -1308#0 774 683#2 -287 -815#0 520#4 440#6 -907#2 502#1 695 781 -182 1480#0 817#1 -817#1 360#1 726#2 -1341#13 -885#1 -17 730#10 568 676 315 -348 -577 375#0 569#2 -502#2 -703#1 890#4 632 866 879#6 1343#0 582#2 629 592#0 737#0 -798 -582#4 -697 -717 1342#1 -519#0 162 631 -318 358#3 -294#0 257#1 1481 740#0 -748#0 -108 787#5 -354#1 -683#3 777 -917#4 363 -730#10 1333#2 -1341#11 856#2 791#2 927#0 1486#3 375#1 1258 1479#2 204 -858#2 902#2 677 -677 592#4 787#2 1480#3 -1341#3 -722 351#4 -888#3 -687 862#0 1491#3 -520#0 -864#2 1326#1 907#0 -579#1 -618#1 884#1 1484#2 -1587 293#1 -716 -1480#0 -600 -622#3 283 -248#0 416#1 281 -255 394#5 -704 -526 708#0 173 354#2 -864#0 -590#0 499#2 279#0 -282#2 522 -416#1 733#1 -746#0 -705#4 -1488 -1302#11 -609#2 15#2 520#6 -598#2 243 -739#3 1341#0 579#4 787#4 -587 778 -567#0 575#1 520#3 -601#1 732#2 -369#0 -408 -778 610#1 -1343#2 748#3 786 494#3 564#0 -564#2 -728#4 748#0 81 359#1 -683#1 -726#2 -629 747#2 902#0 1324#4 -1250#1 776 787#3 564#1 201 -858#0 319#1 567#0 -890#5 573#0 600 747#0 -775 -730#7 -1491#4 -240#0 -748#5 520#7 -366#2 817#0 -522 792#2 -790#0 -520#2 -705#1 784 888#2 569#1 563#0 860#2 815#0 -614 879#3 -1327#1 354#0 674 -13#1 293#0 -733#0 371 -354#0 520#0 520#8 1585 -920 742 1484#3 -730#9 -186 16 -562#0 857#0 298#0 -293#3 562#1 -743#0 -389 -562#2 -691#3 709 -592#2 -375#0 1308#4 860#4 -279#0 -353#0 189#1 -733#2 -494#2 740#1 -705#2 -494#4 792#0 407 -319#1 211#3 -700#1 15#5 356 -777 1367#2 730#8 316#0 -258 734#4 -1308#3 1577 529#2 -730#5 585#3 -746#1 -588#2 -720 582#6 1324#3 494#1 -583#1 -604#1 752#6 -890#0 748#1 299 1408#7 -800#2 -693 1326#3 609#0 244#0 408 621#2 394#4 -495#0 247#2 867#0 527 815#2 623#0 730#6 -315 -728#0 -622#2 247#1 587 701#1 -354#2 520#1 575#0 562#2 -809#1 1341#12 748#5 -12 -708#1 -599 730#3 1256#4 -579#6 -626 918 -855#0 -1342#1 724 -582#2 -1258 -1365 887 -455 733#0 -1308#2 -1329 917#6 590#0 -703#2 1256#2 439#6 -197 -726#1 721#2 210 258 903 351#1 1334#1 1372#4 593#3 1341#10 868 617#5 -1479#2 -752#3 1491#2 702 748#2 -601#2 -782 -275 782 601#3 355#0 -797 582#3 582#11 -700#0 1575 925 -583#2 -784 -1486#3 -593#1 902#4 -394#5 -319#0 -868 -715 293#3 718 -747#0 -799 -800#1 853 857#3 -1479#1 893 799 -682#0 582#10 582#5 -746#2 -579#2 728#2 257#3 562#3 1482 -524#0 -1367#2 -617#1 439#4 682#1 -804#2 -787#0 -10 886 211#4 582#9 890#5 -352 440#8 182 -359#1 593#5 -752#6 -613 1586#1 -293#1 621#0 -612 1343#2 -1491#2 -748#2 917#4 895#3 862#1 242 730#7 -1491#1 -282#1 292#1 864#0 700#1 348 -624#0 1252#0 -584#1 -584#0 100 -730#6 -801 -728#5 -867#0 -733#3 -721#0 -1485 526 -707#0 800#1 698 779 -240#1 1329 601#1 917#2 598#2 -730#11 494#2 585#4 691#4 -929#6 -927#0 1256#3 -494#3 730#11 917#7 488 792#1 1484#0 -601#0 626 -1486#1 578 -713#0 -684 790#2 879#1 713#0 747#1 579#0 -1491#3 602 1372#3 369#0 -712#0 878#0 -1250#0 622#1 855#2 617#4 -317 248#0 1366 562#4 -748#3 563#5 752#4 -576 585#0 -525#0 521#1 884#0 383 298#3 1342#2 801 -597 -728#3 920 -527 294#3 -593#2 -714 -185 439#0 1333#3 598#1 -789 585#2 867#1 -903 -888#1 561#0 -1256#3 622#2 1308#5 752#3 284#1 -888#0 298#2 187#0 -803#1 -1341#6 878#4 -610#0 -855#3 369#1 205#2 244#2 -1420#0 -520#5 -705#0 1308#1 807 -593#3 -690 -566 879#7 353#1 191 -579#0 -685 360#0 179 -593#5 -1585 -856#1 -747#1 -752#1 728#5 614 563#4 1367#0 739#0 -1341#15 -860#2 1576 -582#5 -692 1302#11 -162 -888#2 734#2 353#0 261 1250#1 857#1 917#3 630#1 -530 627#0 1342#0 -592#4 -178 858#2" id="1"/>
    <taz edges="-1273 911#1 -1269#0 -448 451 456 -1274 -911#0" id="20"/>
    <taz edges="1296#0 1311#4 499#3 1244#3 1300#1 166 -489#1 1276#0 -1276#2 1309#3 -1290#0 -1510 -462 489#3 -939#1 -487 -489#4 999 1565#1 492 -1285#1 1277#2 -1285#0 238#0 -489#2 239#1 -457 910 -1487 130 1294#0 1306#1 915#1 476#1 168 860#4 338#0 -98 -1286#0 1287#0 -1413#2 -1511#2 532#1 -892#0 -1303#1 472#0 -391 468#3 480 -338#1 1287#1 471 -1276#0 1303#0 1297#1 468#5 -1408#1 -489#3 -939#0 1270#2 -937 1511#2 461 -491#1 -1299#1 1275#2 473#0 1246#2 479 134 234 -1295#1 1244#0 -232 167 497#1 -1277#0 -1408#5 376 -1289#2 1408#7 1290#0 936 1247#1 -1296#4 -1408#2 165 1276#1 1296#4 -1292#1 -495#0 -495#1 -1501 -1293#3 1309#4 1247#3 493#5 -911#0 -474 -460 941 -1244#0 1244#1 1413#3 415#3 -939#2 -493#3 431 -1413#4 -230 1295#0 336 -1286#1 -1283#2 470 -1282#2 -471 -1309#0 -1244#1 -368#1 1292#0 -889#1 338#3 460 1293#3 493#2 -1297#0 -1295#0 -1274 355#1 -1413#0 -376 415#2 1291#1 942 338#1 1300#2 432 -1292#0 -338#0 1422 169 478 -1291#0 -468#5 892#1 889#1 -1309#1 -473#0 -231 -1293#4 464 -889#0 1420#3 493#4 -1408#7 97 -395 -1509 473#1 -1287#0 -876 422 -977 -1276#1 -233 -1244#3 -1277#4 938 1270#3 939#1 -1413#3 -459 1509 1247#4 -1309#5 1413#4 476#0 -940 -368#0 1285#2 -1299#2 851#3 916 -935 1408#0 -1511#0 1477 489#1 -892#1 -1288#0 -981 -1247#3 357 489#4 1306#2 232 1291#3 459 1511#0 -234 -1300#0 -910 1293#4 355#0 -1277#1 -1291#2 -1299#4 1293#0 1303#1 199#0 466 -1270#0 -466 368#1 490#1 1283#2 -1296#3 497#2 1309#1 -1247#1 1282#1 1283#0 239#0 1293#2 -1300#3 -1306#0 230 493#0 -942 915#0 889#0 -1408#6 -493#5 851#0 1283#1 -467#0 419#1 -469 939#2 -479 1299#1 -468#2 939#0 1291#2 -914#0 -478 468#2 1408#3 1289#2 -494#0 -1282#1 1294#1 -1511#1 -1246#0 425 395 1298#1 337 1285#1 -493#0 1300#3 1300#4 -938 1292#1 1511#1 -1309#4 495#0 1270#1 415#4 -1299#0 -1300#2 1408#1 1277#3 490#0 -1300#1 -941 937 -1285#2 -1247#2 -337 -499#2 1283#3 914#0 -229 1487 1513 -501 -1277#3 892#2 1413#2 -468#0 1510 456 -1245 -1309#3 -480 -1408#3 -1420#3 -1278 1295#1 -1413#1 -943 100 -493#2 -1299#3 489#2 -1275#1 943 -936 -1282#0 233 491#1 227 -1284 940 1305 1277#0 -1247#4 -1277#2 -1415 -93 1408#5 -493#1 1246#1 244#3 1281 -1275#0 1478 103 175 933#1 1276#2 489#0 935 1297#0 496 -465 1280 -1306#1 1303#2 -496 453 1277#1 488 494#0 1289#0 391 -472#0 -933#0 1275#1 -1291#1 1286#1 -473#1 -1293#2 -467#1 23 -489#0 -472#1 499#2 -1422 -1270#2 -1287#1 1288#0 1290#1 -475 458 -1283#1 -491#0 -892#2 911#1 -1269#0 -448 -493#4 -1309#2 -461 -1246#1 1299#2 -1513 -1273 243 -1283#3 851#1 -228 1309#5 451 368#0 1296#3 -1306#2 1299#3 892#0 -1291#3 -1300#4 1244#4 1282#2 338#2 851#2 981 1304 1289#1 -1244#4 229 -1289#0 -1294#1 1420#0 426 199#1 238#1 -1296#0 -1244#2 1283#4 231 -934 469 -470 -1283#4 -490#0 -1289#1 -1477 -980#1 1309#2 -1270#1 -338#2 -1247#0 1282#0 1291#0 1408#4 -1246#2 -1293#0 -1303#0 1408#2 -1283#0 1277#4 -1420#0 -199#0 164 1413#1 -913 977 472#1 1413#0 1501 467#1 1593 -1408#4 -1293#1 -915#0 -338#3 1245 424 1309#0 495#1 -175 493#1 -1270#3 914#1 1288#1 -452 1279 493#3 -1298#0 1270#0 -1408#0 -476#0 487 -468#3 457 -1294#0 462 -1302#0 1247#2 -199#1 -468#1 -453 1299#4 468#1 415#1 1244#2 -999 1286#0 452 -468#6 241 -916 1293#1 468#6 474 1408#6 -336" id="14"/>
    <taz edges="-1270#0 -1264 -1269#0 1269#1 165 1275#2 164 -911#0 1264 421 -1415 420 1267 1270#0" id="19"/>
    <taz edges="-1264 1421 1264 -1265 1265 -1421" id="18"/>
    <taz edges="607 1296#0 512 1311#4 520#9 -683#0 -519#1 1341#8 -1315#6 529#0 979#2 520#0 1377#0 1370#5 1315#0 1371 -954#1 -531 -562#6 520#8 1377#7 -520#1 1369#3 1585 -1370#2 -520#9 -920 1310 1341#3 -645#0 1341#16 -1368#1 -1302#10 890#2 1419#9 -730#9 -1302#4 -562#0 860#1 1486#1 -905 247#3 599 1334#0 701#2 1312#4 1302#5 562#1 1349#1 957 -562#2 -544 -384 -645#1 -979#1 1349#3 709 -1311#2 -1338#5 1370#4 609#2 1497 1341#4 -1315#4 1338#1 1338#7 729 476#1 1308#4 -339 1370#2 -641#1 1340#4 168 860#4 932#0 -353#0 338#0 1252#4 597 -534 1350 -444#0 511 1340#3 -1419#8 1368#1 636#1 1338#8 532#1 -494#4 246#1 -892#0 111 627#2 -1369#3 -615 -884#0 1252#6 -512 1412#1 510 -753 -1349#3 -25 249#1 624#1 -1579 -1308#1 -338#1 -954#2 1252#5 -1370#4 503#0 531 562#6 855#4 -503#2 -1315#5 -1498#1 1367#2 730#8 507#1 954#1 -1586#1 -622#1 -258 -562#1 730#9 -1308#3 1327#0 529#2 -1311#3 -1328 -1348#5 -957 -1377#11 1315#4 520#2 1308#0 -609#0 612 -1341#16 -961#0 728#1 -746#1 1255 -396 524#1 -1341#8 134 347 248#1 -1302#7 -550 -918 -860#3 1250#0 1302#10 1324#3 346 855#3 -1341#5 979#0 1411 -1345 -1348#6 1312#5 850#0 -890#0 -959 1587 -960 -1252#10 -961#1 944#2 514 -1377#1 -1302#6 1324#1 1337 1256#7 1349#4 -881 963#0 1326#3 1302#14 504 609#0 -641#2 -641#3 394#4 890#1 -890#4 1348#2 -1369#0 1348#6 247#2 1344 -1312#5 1252#9 1332#7 615 562#0 860#3 -645#2 -636#0 1377#3 -394#2 1338#9 963#1 623#0 1351#4 -1370#3 -536 246#2 537 -503#0 1313#1 863#1 1324#2 -503#4 1302#13 1332#3 -1302#12 -1341#0 730#6 396 503#3 -728#0 924#1 641#3 881 -622#2 1302#12 1419#8 -1377#10 247#1 617#1 1341#9 -728#2 -617#2 -1250#5 611 -979#2 1302#3 508 637 701#1 980#1 520#1 717 1312#2 -547 1334#2 625#2 562#2 -529#0 -610#1 -641#0 859 -1312#1 -1338#8 -266 -1297#0 -543 1586#0 -1338#7 -509 745 -1377#8 1341#12 -1376 -628 1328 -951 -944#1 1367#0 338#1 -338#0 -353#1 169 478 608 -1368#5 -369#1 -599 -1314 -1344 -1369#2 647 645#2 -636#1 503#4 -1343#5 -246#0 -1327#0 -1348#0 1250#5 -626 -1315#2 1332#6 524#0 925 1341#1 -609#1 547 1311#1 918 -855#0 1315#6 262 -514 -1342#1 -1348#1 -262 1420#3 561#2 505 520#5 394#2 -1365 -562#5 143#1 1341#13 -1340#3 -1308#2 -507#1 1498#1 917#5 -1329 917#6 -503#3 -1302#5 -1349#0 595 623#1 494#4 -1341#7 -1332#5 -1343#1 25 -1342#2 529#1 728#3 -1309#5 258 476#0 919 1486#2 -1338#0 351#1 1334#1 1338#6 -562#3 -890#3 -537 -849 -1341#10 1341#10 -1308#0 959 -890#2 1312#3 -24 1302#4 850#3 609#1 944#1 -1341#9 -981 1331 520#4 -1302#9 -1315#1 -1336 -1309#6 1338#0 -249#0 -1372#0 -607 -1307 -1414 -535 -350 1326#2 1493 -394#1 1336 640 -378 917#0 -601#2 1248#11 1250#4 567#1 249#0 -633#1 -546 -1302#14 -246#2 1302#8 601#3 -1335 -511 1375 1377#10 582#11 -1340#1 -917#3 1315#3 534 -1308#4 -1312#2 -1341#13 -394#4 -1332#3 -1312#3 735 -347 -623#0 563#3 -1315#0 -1486#3 -917#6 -1332#7 1351#3 -730#8 561#1 -394#5 1579 -1252#6 -647 -520#8 645#0 -970 986#0 1414 -598#1 1348#5 563#2 1377#1 -1330 -917#2 594 954#0 -1368#2 -1351#1 1315#2 562#5 641#2 970 -520#4 582#10 617#2 -646 1257 -1377#5 519#1 -860#0 890#4 1338#3 -1348#3 -394#3 519#3 -1496 -1310 728#2 932#1 562#3 -954#0 -1338#3 1343#0 -26 1248#12 -1581 -1348#4 1302#1 -541#1 -1373#0 -524#0 -1367#2 -617#1 1341#15 606 -478 -143#0 -1340#4 1348#4 979#1 1342#1 -1341#4 -529#1 -962 550 -346 -519#0 890#5 958 -352 631 1308#2 -624#1 -1377#0 -986#1 1308#3 -1338#9 1369#1 -979#0 -896 -1302#13 -613 -1251#0 616 1586#1 962 543 -944#3 -612 1343#2 -601#3 -249#1 863#2 917#4 1340#2 -1332#0 1343#1 1339 862#1 1315#1 -706 -503#1 -979#3 1332#4 605 -501 1370#0 730#7 -1375 -1332#1 1373#1 394#3 -917#4 444#1 -917#5 633#2 890#3 -1412#0 953 -730#10 961#0 -608 533 -1302#8 -624#0 1333#2 675 1423 -1341#11 -1420#3 -855#1 -635 1252#0 1498#0 -1252#7 -1586#0 -986#0 746#1 -1493 1338#5 1486#3 649 -1419#7 -1377#9 601#2 -730#6 1368#3 1368#4 -637 -542#0 1338#4 1332#1 1343#3 263 -728#5 -980#0 1311#2 641#1 -860#1 860#0 -532#0 535 -1347 1307 1302#6 849 -520#7 -859 980#0 -1497 -1338#4 -954#3 1377#4 617#0 1302#7 -855#2 -1412#1 979#3 -1341#3 626 351#4 1341#6 -1377#2 -1349#2 1412#0 1419#7 -1338#2 447 1376 862#0 -1343#3 954#3 -1340#0 -520#0 1326#1 -1367#1 1329 1333#0 -1377#4 1377#6 601#1 -1311#0 -510 628 884#1 525#0 917#2 1369#2 598#2 -611 541#1 1309#7 -1587 1251#0 -385 683#0 503#2 -1251#1 -622#0 -1332#4 -1248#11 -1338#1 1297#0 1320 -1315#3 -1342#0 1343#4 444#2 954#2 -494#3 -1302#2 -248#0 636#0 917#7 1373#0 416#1 978 -633#2 -416#0 -524#1 641#0 -1343#0 -601#0 -640 -1486#1 -855#4 -1498#0 1302#2 1330 1368#2 -1341#1 -1257 394#5 634 1335 -1346 644 -444#2 509 602 -1252#1 1343#5 369#0 385 500 -1252#0 1351#1 -519#2 -1250#0 1333#1 -924#1 622#1 855#1 -616 855#2 416#0 -944#2 1377#5 248#0 522 544 -245 1366 444#0 -582#10 -416#1 -1250#2 -1302#1 1302#9 -1370#0 562#4 646 -746#0 -206 563#5 1374 503#5 -1488 -917#8 -502#0 -1302#11 -609#2 -1312#0 1486#0 1312#6 -525#0 378 -963#0 520#6 247#4 503#1 -1370#5 884#0 -1377#6 -1420#1 -1377#3 -598#2 -944#0 -958 -605 -1348#7 1252#10 1365 -1370#1 1420#1 -1368#0 1341#0 1342#2 394#1 -265#0 -1309#7 -597 -728#3 351#3 1309#5 613 -567#0 645#1 917#8 427 892#0 246#0 -963#1 -601#1 520#3 753 -1368#4 -1341#12 -1252#5 338#2 536 1377#11 1333#3 981 546 -369#0 563#1 542#1 -541#0 -1337 -1339 -1252#11 1340#5 598#1 610#1 1420#0 986#1 507#0 -1302#3 1367#1 622#0 -1296#0 850#2 265#1 -507#0 1252#1 -1343#2 266 1341#5 -1368#3 1341#7 -562#4 603 494#3 -1367#0 -917#0 561#0 622#2 -1252#2 -980#1 1308#5 1252#2 -1486#2 -1373#1 1324#0 1370#1 -1486#0 -1256#7 -728#4 26 -338#2 1251#1 541#0 1252#11 -1411 728#4 855#0 428#1 1368#5 -1313#0 -1341#6 -508 -610#0 -617#0 265#0 1315#5 -855#3 1346 -1351#3 1370#3 1311#3 369#1 951 -1420#0 1252#7 1324#4 -1250#1 1345 -520#5 1308#1 -1331 142 1368#6 1348#1 -542#1 1581 -1349#4 353#1 1250#3 1252#8 -1343#4 -520#6 -263 -1348#2 1488 351#2 1348#0 567#0 896 -890#5 1312#1 -1350 -1250#4 519#2 -1248#12 -1252#4 1377#2 428#2 -890#1 1496 -1585 -1252#8 850#4 -917#7 920 1377#9 -1250#3 -730#7 -728#1 -603 -1311#1 1341#11 728#5 614 -602 636#2 633#1 520#7 -1349#1 -549 -522 1327#1 -988 -520#2 563#4 -265#1 -505 -1332#6 1348#3 1349#0 1351#2 -520#3 1309#6 -1341#15 1332#5 -1252#9 -860#2 -945 1340#1 549 850#1 -444#1 988 -606 563#0 -1298#0 1341#14 -476#0 1377#8 -1312#4 860#2 -1340#2 1302#11 1349#2 -614 1326#0 -1338#6 -1302#0 -1377#7 352 353#0 -1327#1 1250#1 -1320 -246#1 944#3 945 1250#2 917#3 1348#7 -1369#1 1369#0 -533 627#0 960 1342#0 -1351#2 1338#2 961#1 -1341#14 264" id="13"/>
    <taz edges="1395#1 1407#6 -929#1 -1393#2 -1490 -877 812#2 -1407#9 -1403#2 -1407#5 -1397#1 -811#0 -824 -994 -1401#3 1382#1 -819#0 298#0 -804#0 -1396#0 -807 814#1 931#0 829#2 -340 1515 296 -223#8 -818#0 1396#1 830#0 -810#1 -1516#1 -1404#25 -929#5 1404#12 -772 223#7 803#1 -992#1 829#1 -1407#8 772 930#0 1378 213 1404#17 1404#11 -1401#1 1407#3 929#7 -904#0 821#1 808#0 837#0 -1404#27 -816#0 -223#3 895#2 1393#2 838#1 927#3 -812#0 1261 816#1 223#4 -1405#1 1401#4 -1404#9 1262 -929#4 -1393#1 300#1 835 812#0 223#2 1580 830#2 10 223#5 298#1 295#1 -1407#11 828#1 1405#1 -300#3 904#1 -1404#8 -1390#2 1390#3 299 -1393#3 1407#0 -1381#0 -1400#0 1391 815#1 1392 1390#4 -1491#0 -306#0 834 1389#0 816#0 815#2 790#0 827 1381#0 -992#0 -315 1389#1 1404#25 -1404#2 -804#1 -856#0 295#2 992#1 -296 -819#2 223#10 829#0 1372#5 837#2 295#3 -809#1 1400#3 929#0 -1395#0 1260#0 -829#6 1383#0 1404#6 1397#1 340 -829#8 -1404#6 1404#23 895#1 -821#2 -839 -843 1404#21 223#8 836#0 840 902#3 -829#1 1404#8 -1389#1 -817#0 828#0 -1404#19 -1258 301 -292#1 814#0 819#7 -1404#0 1578 929#5 816#2 -814#1 -1404#7 318 443#1 -1260#0 295#0 -1381#1 -1505#0 1407#9 902#1 -669 223#6 -1505#1 195 903 -829#2 1390#2 1404#1 -1400#3 -1514 -301 -840 839 -828#1 300#2 818#1 -1396#2 -300#0 -1389#0 -815#0 194 1404#20 829#6 -223#1 -1402 -223#9 1491#2 -1404#23 435 1390#5 -904#1 1505#1 819#0 931#1 -374#0 817#1 829#3 1382#0 824 -817#1 -1404#17 822 -1404#26 -929#0 1404#3 -1516#0 995 -1400#2 -822 902#4 -811#1 1404#16 1404#18 -223#2 830#1 1400#1 821#2 -1407#3 1492 -306#1 297 -837#0 315 -829#3 808#1 -1404#3 1407#11 893 -819#4 -1263 306#3 -837#1 -1398 1260#1 -300#2 -814#0 1404#19 -829#5 -929#3 -115#0 1403#1 -1404#20 1398 -1407#6 1355#0 -856#2 -838#0 1404#27 -815#1 -1404#18 751#1 -929#7 1393#1 306#2 -804#2 819#4 -10 300#0 1404#10 -927#1 1390#1 -930#0 162 -1260#1 1516#0 904#0 -318 1396#0 818#0 831 -1390#1 1401#1 -1404#13 -1491#2 819#5 895#3 -830#1 787#5 -900 374#1 -1491#1 292#1 1491#1 -836#1 -821#0 304 843 -1404#10 192 833#0 856#2 -1404#12 927#0 -819#7 1404#2 -1396#1 113 -826 1258 -1382#1 -829#0 223#9 -300#1 902#2 -819#8 -223#5 837#1 811#1 -790#2 -819#1 -1391 -223#0 -1390#0 929#4 -1355#0 -837#2 1491#3 -306#2 -1407#2 -1393#0 -730#0 929#6 -831 819#8 811#0 -929#6 -927#0 1399 819#3 -1407#4 1404#13 927#2 -1262 -1404#1 -819#3 1400#2 1404#5 -790#1 -1407#1 1407#2 856#1 -931#0 -223#6 790#2 443#0 -836#0 -1491#3 173 1407#4 -1404#11 1383#1 1393#0 1401#2 829#5 810#1 1401#3 223#3 -842 909 812#1 809#1 349 -930#1 -223#10 829#8 -1407#0 1403#0 -1401#2 -1499 1407#5 -1382#0 -1407#7 -1392 -830#2 300#3 298#3 -1403#1 223#0 908 1505#0 -810#0 -1517 1401#0 -931#1 -1261 -927#3 -821#1 1395#0 -1400#1 -304 115#1 1407#7 -305 -929#2 -834 -903 -1580 -812#1 1574 929#3 -1404#24 992#0 -1397#0 -808#1 1407#1 894 298#2 -828#0 -803#1 730#0 829#4 1263 833#1 -1404#21 -374#1 1516#1 223#1 1404#7 902#0 -1399 821#0 305 790#1 -1383#1 -819#6 807 -192 826 -223#7 -819#5 -1394 1404#24 -1404#5 1403#2 819#6 -1492 306#1 836#1 823 -297 -827 -856#1 -814#2 927#1 -1378 929#1 1499 838#0 1396#2 -1515 819#1 817#0 -830#0 -790#0 -306#3 -818#1 804#1 -829#4 -815#2 -833#1 1407#8 -1390#4 -816#1 -808#0 -927#2 1393#3 930#1 -194 -751#1 669 -1401#0 -223#4 819#2 1394 815#0 -162 1402 1381#2 804#2 929#2 -1390#3 814#2 900 -1404#16 825#8 1390#0 -195 1397#0 856#0 -835 -833#0 1404#26 1404#9 374#0 -1390#5 1381#1 -1403#0 -1383#0 -823" id="12"/>
    <taz edges="767#0 948 979#2 1322#2 -1315#6 969#1 922#1 -650#0 -1372#2 1377#0 928#4 1370#5 27 1315#0 -984#1 763 -272 -954#1 1371 1419#1 1384#0 1377#7 1369#3 666#4 303 -1370#2 -235 760 -1502#1 -645#0 -928#6 217 -1368#1 -386#0 310#0 429#0 766 1419#9 -342 -1253#1 483#7 309 -1352#1 -657#0 -982 -442 -994 -1419#4 -905 673 1253#0 848#0 928#0 957 1349#1 -390#0 538#1 -1355#8 1419#6 -389 -764 -544 -384 -325 -645#1 -979#1 1349#3 558 289 652#0 1370#4 767#1 1515 667#1 302 -820 1497 -1315#4 -1256#5 -1419#3 -310#0 1317#0 1338#1 1370#2 1418#2 -269#0 -641#1 -653#1 -1256#1 1353 845#2 1358 -1000 -1317#0 -1357 -1516#1 -388 -534 -666#0 -847 -271 1317#2 1350 1419#3 218#0 -1417#0 483#0 -1355#4 -825#2 -1419#8 1368#1 636#1 899#1 388 -1369#3 -556#2 1412#1 379 553 -968 213 -659#0 -1349#3 -25 -539#0 -753 825#2 -1579 971#0 -954#2 -1370#4 -1319#1 -555#0 -666#3 -652#0 -1315#5 984#1 429#1 -765 954#1 -540#1 808#0 -486#0 769 -1316#3 -1256#2 975 -1379#6 -648 666#8 1355#11 -308 883 -671 -759#0 -1358 -957 1387#1 650#1 -1377#11 1315#4 270 287 989 -1416#0 1248#1 -749#0 666#7 269#2 -661 -983#0 -381#1 -961#0 -973 1248#9 -638 -928#5 1354#0 1385 347 -666#5 -445 -550 539#0 346 825#6 1372#2 -1256#0 -253 -922#1 979#0 1411 1494#3 -554 -1345 650#0 752#6 -959 993 663 633#0 -987 -1410#0 -960 757#1 1355#12 -639#1 -382 540#1 -1316#2 -961#1 -392#0 1379#5 1248#13 -1377#1 1379#3 963#0 1349#4 1256#7 825#1 -881 659#1 -984#0 -749#1 758 952#0 -270 -652#2 -641#2 -993 -1419#0 -641#3 -667#0 -539#1 -1355#5 390#2 272 1316#1 1348#2 -1369#0 390#3 880 -390#3 991#1 1248#5 1355#7 -899#0 1332#7 -306#0 386#1 882 -645#2 752#0 -636#0 1377#3 1322#4 963#1 -1318#2 288 1351#4 -1370#3 -1322#2 -1384#6 1355#1 1256#1 1355#8 171 -483#5 653#1 -969#0 926#0 -1503 -728#0 392#2 966 1325 -1253#0 -642 -897 -1384#1 641#3 881 269#1 1419#8 1354#1 -1377#10 -825#1 -1316#0 -979#2 1380#1 -1361#0 -1355#11 611 637 1355#9 -1248#9 1569#1 -483#0 -547 1372#5 749#0 -251 -641#0 372 -809#1 -1355#3 -266 -543 922#2 539#1 556#2 -1377#8 1503 -1248#7 -971#1 -1376 1380#0 -1248#6 -548 -951 -1321 -767#0 397 633#2 -344 1356 647 -1368#5 -1369#2 -225 666#0 538#0 313#1 1355#3 645#2 -636#1 389 1256#4 483#4 -1348#0 -825#7 390#1 -1315#2 1000 1332#6 -1384#4 392#1 1494#0 484 538#2 481 547 643#1 1315#6 -1355#6 -964#1 657#0 667#0 540#0 765 -1348#1 -262 -1418#3 -991#1 -1249 -633#0 738 -1258 1248#14 752#2 143#1 -1363#1 -1318#1 1362 -1385 -825#3 984#0 1256#5 1578 754 1494#1 757#0 -666#8 -1349#0 -1384#3 1256#2 -928#0 1573#1 -1332#5 483#6 -1505#0 25 -652#1 323 -1355#1 825#5 651 657#1 667#2 -1322#4 -1338#0 -1362 -1419#6 -848#0 762 -1318#0 -553 -848#4 -921 1372#4 848#2 928#6 -537 -556#1 639#0 1379#6 437 759#0 901 -1514 -398 -559 959 -24 -655 -481 377#0 -287 552 923#0 -392#1 430#1 -1315#1 921 1357 1338#0 987 -1317#3 -665 -738 1256#6 648 1316#0 -1372#0 847 -752#3 965 -1414 756 1379#1 1493 1364 640 -673 -378 -976#0 -538#2 -1363#2 -1419#1 1248#11 -633#1 -546 236#1 752#1 1500 -1502#0 486#0 -1360 -1380#0 -657#1 1317#3 -1379#0 1375 1377#10 671 -770#0 382 1315#3 1363#1 534 -1355#9 767#2 1318#2 556#0 -254 -1516#0 -347 995 -1315#0 -1332#7 -825#0 1351#3 1248#4 -1418#1 1579 -268 -647 -672#2 483#1 645#0 -970 964#1 -1248#0 1414 -306#1 180 -966 1377#1 -1417#1 -180 -965 556#3 -1354#0 -1368#2 954#0 -1351#1 1315#2 387 1380#2 641#2 970 -646 1257 -1377#5 -759#2 -1348#3 -670 1248#6 1322#1 -668 1410#0 848#1 -762 -954#0 -26 652#1 -323 1248#12 -949 1355#0 -1581 -1348#4 307 -922#0 -541#1 -1373#0 1379#2 445 -538#3 -956 751#1 -664 665 -143#0 290 1348#4 -809#0 979#1 -666#7 253 666#5 483#2 -672#1 -273#1 -1419#2 -962 -1248#1 -390#1 251 -752#2 550 952#1 -346 -1355#7 -269#2 958 971#1 -267 555#0 -643#0 1516#0 -666#1 -1377#0 1248#3 1409 -947 1369#1 -1256#4 -979#0 -752#6 -896 -756 1386#1 616 -380 962 1316#2 543 1253#2 947 -899#1 -545 -1355#12 -377#0 325 1256#0 559 982 1315#1 973 1494#2 -288 -979#3 -1355#2 1332#4 1355#10 -1317#2 1370#0 1319#1 -1375 1373#1 659#0 -477 271 946 1363#0 -1379#1 -310#1 -1412#0 953 961#0 771 1361#1 -381#0 -922#2 654 540#2 964#0 273#1 639#1 1417#1 192 848#4 -635 -643#1 -556#0 -928#2 922#4 -1248#2 -882 -485 1384#6 1355#2 -1493 649 -1419#7 -1377#9 -392#2 1368#3 1368#4 377#1 -637 -556#3 -542#0 1258 976#0 263 1419#5 666#1 -768 1318#1 -551 -667#1 -658 641#1 672#1 -653#0 -532#0 825#7 -1347 -848#3 -1500 666#3 949 373 750 269#0 969#0 -1497 -654 -954#3 -1253#2 1377#4 764 928#3 928#5 -1412#1 979#3 1253#1 -387 -252 381#0 1248#2 398 446 -1377#2 968 -1349#2 1412#0 1419#7 -1338#2 928#2 -1355#0 -1410#1 -1419#5 -848#2 1376 -656 555#1 954#3 1377#6 825#0 -1377#4 -766 -373 -483#6 668 -967 -483#4 -540#0 377#2 751#0 1369#2 -611 541#1 985 -1248#4 -1372#4 -385 950 1248#0 -950 666#2 1410#1 -1338#1 -1332#4 -1248#11 -969#1 1363#2 1320 -1315#3 477 1256#3 -928#3 1322#3 954#2 -751#0 274 -1248#3 636#0 1373#0 978 -633#2 308 641#0 -750 749#1 -948 1418#3 -286 922#3 -922#3 1416#1 -640 -974 -1418#2 1368#2 -767#2 1318#0 1571#1 -1257 -1372#3 770#0 -1248#8 634 -666#4 644 1248#10 664 -557 656 1372#3 173 385 1351#1 1489 976#1 -1512 -989 1355#5 -752#0 -616 -1504 1502#1 1377#5 486#1 -27 544 -392#3 -1416#1 658 -1370#0 -928#4 -483#1 -746#0 1418#1 646 1374 848#3 1355#4 643#0 -659#1 909 342 1312#6 -1248#5 -1384#0 809#1 1384#1 -667#2 -963#0 1419#4 378 -639#0 926#1 -1370#5 960 -1377#6 -958 -1377#3 -761 -1370#1 1379#7 1363#3 -825#6 -1368#0 670 -983#1 -1384#2 268 -265#0 -666#2 -769 -1363#0 661 820 645#1 -483#3 642 -372 -390#2 254 427 -1386#0 -901 -1319#0 -963#1 753 -289 1321 1505#0 991#0 -1368#4 -1517 1377#11 546 -555#1 -1316#1 -397 -825#5 1419#0 -541#0 218#1 542#1 -971#0 983#0 -1379#5 -922#4 390#0 -446 554 428#0 483#5 -1352#0 265#1 266 -848#1 1316#3 1574 -1368#3 -1379#2 1570#1 310#1 922#0 603 -1256#3 -273#0 -651 1254 1384#4 252 483#3 -1373#1 26 1370#1 752#3 755 983#1 -1248#10 -1256#7 -1386#1 541#0 -310#2 -672#0 -1411 310#2 429#2 899#0 -730#2 -483#2 485 -662 1368#5 428#1 -663 324 672#0 341#1 1352#1 -1353 825#3 265#0 1516#1 1315#5 370 768 -1351#3 -1384#5 -345 -377#1 1370#3 548 951 1345 273#0 -972 1355#6 -758 1248#7 1419#2 -1379#3 1348#1 -542#1 1368#6 267 -192 1581 -952#0 -1349#4 845#3 -1355#10 -263 -1348#2 -324 -763 896 1348#0 1384#5 -1350 -1363#3 923#1 956 -1248#12 306#1 638 -955 1377#2 759#2 -991#0 170 845#1 897 -379 1377#9 -343 1319#0 652#2 -603 -1489 672#2 -752#1 -985 1417#0 1322#0 -660 286 636#2 -441 -1515 -377#2 -770#1 633#1 -1349#1 -946 344 846 1379#4 -549 -988 -538#0 -767#1 436 -818#1 1502#0 -265#1 1348#3 -1332#6 1349#0 -976#1 1351#2 -1248#14 -760 1384#2 1332#5 1384#3 380 549 -945 -975 -386#1 392#3 845#4 221#1 988 -755 -808#0 545 343 -751#1 1377#8 537 967 -1322#1 -1380#1 1349#2 556#1 386#0 -757#1 770#1 972 662 -1377#7 1504 -846 825#8 -538#1 -540#2 945 -1320 -1256#6 -757#0 -891 -269#1 -964#0 310#3 -1248#13 345 381#1 955 442 -1369#1 1369#0 538#3 -558 -1379#4 557 1512 -1322#3 -1351#2 -1322#0 1338#2 -952#1 961#1 1248#8 974 -484 264" id="11"/>
    <taz edges="1380#1 1569#1 290 926#1 763 303 -928#6 217 1380#0 820 -1405#0 -1386#0 1386#1 1505#0 -1517 -1384#4 218#1 172 -922#4 302 -820 1574 -1385 1570#1 1578 754 1384#4 771 1573#1 -1386#1 -1505#0 922#4 1384#6 1406 -1505#1 -1384#5 976#0 762 -1388 928#6 196 437 -1514 883 -196 1387#1 -763 1384#5 923#0 928#5 923#1 430#1 -1405#1 1385 -928#5 -976#0 -441 -1387#0 -770#1 1405#1 1505#1 -1380#0 -1379#0 -770#0 -976#1 -1406 922#3 -922#3 -974 180 -1380#1 770#1 1571#1 -180 844 770#0 1380#2 -1384#6 926#0 976#1 -1512 -762 1512 974" id="17"/>