<tazs>
    <taz edges="431 1573" id="33"/>
    <taz edges="1604 475" id="45"/>
    <taz edges="-924 -944#0 467 1292" id="34"/>
    <taz edges="902 -902" id="44"/>
    <taz edges="-1375 1375" id="43"/>
    <taz edges="441#0 227#1" id="32"/>
    <taz edges="1391#0 -1391#0" id="42"/>
    <taz edges="1399 -1399" id="41"/>
    <taz edges="-1417 1417" id="31"/>
    <taz edges="1267#4 730 898 746 -628#5 116 573#1 -531#0 741#10 192 -112 745#2 -816 -744#0 593#9 1494 827#1 -899#2 745#3 -226 811#0 590#0 530#2 222#3 808#0 327#0 -1352#14 -593#9 365#2 750#3 628#2 328 809 827#0 1263#0 756 -593#1 305#2 734 -739#5 1267#2 829#1 743#0 427#0 -694#0 -266 -820#1 -901#0 288 -530#3 -328 695 -513#1 293#2 -1502#1 629#0 -621#0 -116 866#0 -1415#0 13#0 890#7 -714#2 702#4 -1353#2 798#3 583#2 790 716#2 -633#3 1353#2 814#1 604#1 744#0 -693#0 -901#5 531#8 596#0 794 -380#1 573#5 -1352#7 -929 17 624 -732#0 -914 739#3 -1501 580#4 -633#2 -535#1 634#0 -530#0 303#1 -754#1 1335#2 304#2 531#6 -92 -220 513#2 593#6 199 590#4 535#0 602 -378 -608 1352#12 -394 -829#1 814#0 287 743#1 593#10 -1497#3 573#4 187 929 578#0 573#6 -750#1 386#1 591 -1383#4 -759#1 -304#1 -1205#1 791 -1383#2 -714#0 -1352#15 -716#0 -1352#10 -1313#11 16 890#1 123 879 184 295#1 213 -721 -612#2 -741#1 601#0 -615#0 253 598 928#3 531#2 -365#1 712#0 1319#5 580#2 454#1 380#0 763#1 603#0 871#3 -293#3 913#1 -1502#3 1345#2 -290#1 -590#6 -293#0 222#2 867#2 -723#1 -694#2 901#4 -109 744#2 -599#1 612#3 751#1 -1318 -286 304#4 694#1 -531#1 694#3 -601#0 305#0 365#0 -427#0 -795 1588 303#0 743#4 615#1 -931 913#3 -117 113 594#2 873#0 -505#4 -531#4 450#4 611 -759#6 1337#3 868#3 -289 1269 574#1 -690 117 693#0 534 -871#3 741#3 741#2 -604#3 -1352#0 -1352#1 -826#2 812 895#0 361 731 869#5 -763#6 -506#1 631 -380#0 542 741#1 -1491#0 736 -1343#0 451#8 753 -589 -197 628#0 174 757#1 -1494 -867#1 733 -1352#16 -718#0 505#4 -732#2 -203 1377 -633#1 -1261#3 -744#2 691 -896#1 -1357 571 1313#11 -525 -899#1 752#1 579 -739#0 -739#2 763#5 596#2 -797 -918#0 793 -726 871#1 802#2 -593#7 899#0 928#8 751#0 612#2 -251#0 868#2 -594#2 727 1383#3 596#4 904 -1319#0 -628#3 694#0 15#0 502#0 -1319#3 -583#0 -710#0 878#0 609#1 600 712#1 -875#2 889#3 -202 874#0 901#5 -818 732#2 -748#2 -763#1 1319#3 531#1 -1343#1 -759#5 580#3 92 890#2 724#0 822#1 -593#5 688 293#0 936 -623 1378#2 875#0 890#8 808#1 604#3 15#1 741#0 1354#0 -875#1 532#1 -812 -584#0 -798#5 -709 -590#1 367 298 -798#4 259#0 -702#5 -702#0 -869#2 -786 362#2 196 -704 798#1 737#2 -716#2 620#0 -621#1 796 -888 1597#0 609#2 716#1 221 189 295#0 -573#4 -587 930 873#1 -1352#5 -604#2 122 451#0 -719#1 -541 -330#1 293#1 918#0 -741#5 366#2 -298 510#2 -305#2 702#0 802#5 -12 -1267#3 918#2 590#3 763#2 223 639 822#0 -637 -723#0 572#0 1376 -575#0 -737#1 -940#6 450#8 451#4 268#1 310 938#0 823#0 -628#0 583#1 -386#0 -798#0 745#1 -223 1319#0 364#1 865 -115 604#0 -758#2 173 -326 603#4 -593#8 -718#1 380#1 636#2 198#0 575#2 1353#0 -628#1 121 254 827#2 613 -694#1 719#1 -805 12 705 737#1 -615#2 1491#3 -305#0 758#2 1385 573#0 -878#0 -212 804 -1597#1 -524 1340 200#1 255#0 710#1 757#2 -590#3 803#1 216#2 -600 899#4 709 635#1 -1352#8 866#3 -699 190 193 -624 305#1 450#5 -590#4 -715 -896#0 -722#1 -1352#4 -801#2 1497#1 -899#0 -405#1 -753 641#3 1319#1 -790 -741#7 -714#1 517 754#0 -866#3 -741#9 1335#1 798#2 386#0 -823#1 623 185 621#1 788 798#0 405#5 815#2 826#2 1495#3 724#1 1502#4 604#5 1497#3 728 636#1 871#4 -754#0 -875#0 -787 763#3 -516 -513#2 1357 759#1 451#6 750#2 201 -879 -1338#1 -634#0 743#5 371#5 506#0 -830#0 -208 589 603#3 -510#0 -711#1 -794 641#1 -1352#9 289 -1502#4 -427#1 507 919 -361 -809 713 466 384 877 15#5 -899#4 505#3 304#0 763#0 698 869#2 -716#3 632#1 805 1497#0 427#1 634#1 -536#0 -752#0 1352#9 747 1502#2 896#1 -1376 -635#1 -724#1 -814#0 451#2 638#0 -800 633#1 -1491#1 -573#3 -815#2 535#1 741#5 869#0 -585 818 626 -292 -603#0 -304#4 -640 222#4 643 -1338#0 204 371#0 -173 -304#0 714#0 -505#1 928#6 1352#1 531#7 -784 -719#0 -510#3 -811#1 -507 786 326 1335#3 -928#7 216#0 -329 454#0 -591 -505#3 -752#1 -928#8 867#1 -822#1 -755 -612#3 864 532#0 -590#0 704 203 -724#0 -826#0 309#0 875#2 889#0 744#1 13#1 716#4 869#1 1337#2 216#3 615#2 1598 226 -17 739#1 868#1 -703 759#6 -759#3 366#1 -801#1 741#7 574#4 -1497#1 290#1 -603#4 628#3 801#0 689 1495#2 -629#1 -1319#1 450#0 1509#0 -901#4 114 1383#4 687 539 -730 -867#0 -739#3 -532#1 -530#1 -593#2 -1314#2 362#4 -717 714#1 716#0 -758#1 -711#0 195 330#0 -532#0 1354#3 307 1352#8 -612#1 1352#6 -601#1 -505#0 -1497#2 696 194 642 -583#1 620#2 540#1 905 789 866#4 -10 -405#0 593#5 741#11 928#2 -741#11 -293#2 -1352#12 524 -687 -727 127 697 1352#0 15#4 -531#6 -705 -531#3 -788 1345#1 -697 759#3 906#4 795 450#7 604#4 -573#5 -750#3 -928#4 -1354#1 -609#2 531#3 368 372 -304#2 499 286 -573#1 800 574#0 -741#0 787 722#1 -1383#3 -804 -702#4 10 526 -731 792 -502#0 -603#3 -744#3 -811#2 -269 828#0 -612#0 592 -609#1 11#0 876 293#3 595#1 -573#2 1345#0 -620#0 -763#3 741#8 754#1 -384 1344#1 -938#0 1205#0 255#3 595#0 -700 -1509#0 723#1 739#5 913#4 816 -592 -1502#0 266 1490#2 889#2 505#2 370#0 -330#0 597 -1269 1314#2 -635#0 -869#1 -359 693#1 -603#1 -1267#1 -801#0 366#0 798#4 -741#10 1261#3 365#1 -531#2 516 735 572#2 -307 508#2 625 -741#2 -540#1 718#1 -611 505#0 -377#2 -1380#2 109 1490#1 -822#0 824 371#4 1313#10 -1503 1419#7 1499 700 -828#1 867#0 -688 -643 -303#0 928#5 -593#6 -531#7 259#1 826#1 890#11 530#3 719#0 -586#0 826#0 1319#4 -535#0 -759#4 -595#0 1337#1 575#1 -288 815#1 371#2 -918#1 451#1 615#0 1497#2 899#2 -542 897 633#0 581 725 -538 1261#2 -877 363 512 878#1 763#4 371#1 377#2 -1319#4 -364#0 -590#2 1491#0 702#5 -193 1352#13 -579 -918#2 1502#1 703 -763#2 405#1 -899#3 711#1 -732#1 763#6 119 574#5 -1339 -904 758#1 1261#0 -513#0 -940#7 -863 706 15#6 874#2 572#1 -1490#0 -189 -510#1 331 574#2 758#0 518#1 305#3 577 928#4 1501 637 291 -604#0 -305#3 -598 -577 -758#0 593#2 -702#3 294 530#1 711#0 573#3 813 -1340 -763#4 -531#9 748#0 714#2 -363 359 290#0 -505#2 -702#2 738 -1263#1 -628#4 -1490#1 -876 1338#0 1344#3 -872 1352#10 578#1 1319#2 1352#11 630 -192 -201 -744#1 531#4 802#4 811#1 330#1 737#0 906#2 -512 -810 799 1352#15 -13#0 -610 -584#1 1335#0 -869#5 -739#1 111 798#5 -573#6 108 -811#0 820#1 -1596 699 -305#4 741#4 -866#2 -928#3 1205#2 868#0 -603#2 -405#5 -583#2 943#1 -613 -628#2 -293#1 785 638#3 -713 750#0 694#2 603#1 628#5 -540#0 874#1 -1267#2 -737#2 594#0 913#0 -517 593#11 628#4 450#6 -823#0 871#0 -1490#2 510#0 -739#4 15#2 -791 505#1 1338#1 740 540#0 -370#0 -194 541 292 702#3 899#1 870 906#3 -871#1 811#2 -1354#0 755 540#2 -1261#2 251#0 302 -815#0 -259#0 373 745#0 594#1 1352#7 743#3 268#0 -304#3 237 -1493 -540#2 -1597#0 -741#4 -808#0 -195 -827#1 -593#3 305#4 268#3 -814#1 803#2 -1319#2 -728 371#3 -1497#0 -827#0 -866#1 -737#0 -813 -251#1 -533 -866#4 -1205#2 759#0 866#1 1352#5 1352#3 584#1 801#1 866#2 -694#3 1337#0 508#1 732#0 584#0 378 620#1 -1502#2 -817 701 895#1 1490#0 741#6 251#1 889#4 -734 218 527 -537 272 -510#2 -1353#1 -575#2 633#2 -750#2 -626 628#1 -748#0 376 -736 202 -419 216#1 -878#1 369#3 585 -506#0 -119 -625 197 1354#2 872 743#2 759#4 296 -928#5 198#1 583#0 610 -405#2 304#1 -599#2 405#0 744#3 -865 632#0 303#2 -710#1 -750#0 -741#3 633#3 603#2 188 -303#1 -741#6 1318 741#9 1431#0 810 -571 -374 -870 593#1 -365#2 200#0-AddedOffRampEdge -1378#0 868#4 1267#1 -213 1503 531#9 1354#1 797 863 802#3 -287 1352#16 590#5 -588 15#7 593#4 513#1 601#1 889#1 596#1 400 1383#5 -1491#3 729 1495#1 -604#4 537 750#1 362#3 531#0 1339 451#3 918#1 215 -302 364#0 -575#1 605 -1352#11 1353#1 802#0 1491#1 -405#3 -1267#4 -573#0 712#2 802#1 -757#1 -928#6 -871#4 -792 -796 -695 723#0 890#6 -1496 362#1 739#4 1587 710#0 1596 -594#0 1502#0 -1431#0 375 -586#1 -1261#1 586#0 394 15#3 327#1 1263#1 -620#2 222#1 875#1 -364#1 -828#0 329 940#6 -121 906#1 943#0 -1263#0 538 721 450#2 533 586#1 599#2 690 604#2 -604#5 -763#5 596#3 830#0 716#3 212 593#8 268#2 304#3 -1378#2 -530#2 -798#1 -698 920 -708 -386#1 360 580#1 510#1 -701 640 871#2 720 1335#4 759#5 -531#5 869#4 -815#1 -871#2 -1419#7 641#2 1267#3 -899#5 382 1352#14 1205#1 -615#1 590#2 -826#1 590#6 -808#1 -793 638#2 587 1344#0 575#0 200#0 -1352#3 405#2 928#7 1502#3 -1598 580#0 739#2 -1353#0 -604#1 -466 -187 -400 828#1 801#2 -595#1 759#2 -1352#6 536#0 510#3 -303#2 817 419 -716#4 718#0 -253 899#3 593#7 -639 -789 732#1 1597#1 784 573#2 638#1 -696 -806 -1354#2 -799 748#2 458 940#7 608 707 -866#0 890#3 377#0 -759#2 -1205#0 931 686 896#0 255#2 806 -895#1 -707 -798#2 309#2 -1352#13 914 224 -1313#10 525 708 726 -370#1 1261#1 -895#0 1492 -518#1 -377#0 -237 405#3 -365#0 899#5 576 -759#0 531#5 -196 -871#0 -590#5 -716#1 -693#1 606 593#3 702#2 -689 1491#2 1496 1586 -1499 803#0 -869#4 -620#1 -757#0 -867#2 629#1 -820#0 1352#4 890#4 -869#0 -741#8 1343#1 1382 450#9 801#3 1378#0 -372 -13#1 -290#0 -594#1 -633#0 -928#2 -1261#0 685 -827#2 -1313#12 -593#10 269 -593#4 -204 506#1 208 -801#3 599#1 -629#0 -798#3 -305#1 752#0 -578#0 -824 369#2 -757#2 -733 115 -738 -725 590#1 -1491#2 -1354#3 1493 374 370#1 745#4 612#1 -531#8 574#3 588 890#5 1344#2 -763#0" id="1"/>
    <taz edges="1285 -922#0 -459 467 922#1 -98 462 459 -1285 -1284 -1280#0 138" id="20"/>
    <taz edges="1312 -1419#3 1297#0 368 426#4 1302#1 508#1 -948 -1419#2 1419#4 180 921 1288#4 499 238 1320#0 1317#0 501#1 -1281#1 -112 -1296#1 485 -1290 -1301#1 93 141 510#2 -1258#1 243 347 -502#0 244 -1302#3 1305#0 -1299#0 1294#1 1297#1 946 1303#1 -468 1522#1 -510#2 464 1520 -1419#6 -887 -900#1 1258#4 -1524 -104 459 -1317#1 -1320#4 925#1 245 1304#2 349#3 922#1 -1320#5 950#2 -1309#0 -1498 467 -1293#1 1294#2 -506#0 -143 862#1 255#3 434 1310#4 -1317#0 94 -479#3 -484#1 -903#0 1299#1 1294#4 1424#2 -945 402 -1311#3 1298#0 479#2 -947 1575 -1307#0 -1309#1 250#1 210#1 -1304#0 -239 -1303#0 -459 254 1293#0 -487#0 -469 -926#0 106 379#0 1301#0 436 -504#3 504#2 -1303#1 1258#0 -240 -1306#1 -900#0 1307#3 1300#1 1314#2 -1307#1 -1255#3 -1257#2 435 406 -498 -482 1419#5 1311#4 348 498 -1298#0 1431#0 483#0 366#0 -1294#4 -944#0 -1281#2 -1512 504#0 138 -543#1 1257#2 -1288#4 1424#3 -472 480 -1281#3 -479#0 186 -927 -1424#1 1424#4 -1296#0 1258#1 1320#2 -1287#0 508#2 -903#2 500#4 -1297#1 349#2 481 903#0 505#0 -491 1291 109 -1294#2 -349#2 1419#0 -145 -500#2 -1294#0 1317#1 950#1 147 162 1419#7 249#0 -1306#0 -924 -132 -504#0 249#1 1294#0 1293#2 -1281#0 1576#0 1289 -502#1 478#1 1419#1 473 484#1 1286#1 187 1255#4 -1522#2 -486 462 -1308#0 1315 -946 -1287#1 1299#0 1310#0 1281#1 952 1288#0 1257#1 1576#1 -103 -244 349#1 486 104 -464 -1311#0 430#1 947 -478#0 -490 1522#2 1310#3 -1419#5 1488 -477 1307#0 475 1524 100 -1522#1 426#1 -504#1 -992 -1255#1 -1310#3 1255#0 1489 -1431#0 479#3 -470 -922#0 1301#1 -1301#0 1281#2 387 1285 -1302#2 -93 23 -1314#1 -950#2 1314#1 -1305#1 -483#0 512 948 949 239 903#1 -481 -1424#4 1286#2 -1288#2 1433 -1314#0 -483#1 506#0 1281#3 469 1302#0 -109 -1258#3 -500#1 -1300#0 -952 477 -1424#2 -1300#2 -1310#4 507 -1488 1288#1 -146 -347 -98 1309#1 1308#1 1304#3 -473 1320#3 -487#1 1310#1 862#3 1296#2 1304#4 -925#0 1419#6 144 113 177 -1295 -379#0 483#1 -903#1 1521 437 1287#2 1292 1258#2 161 -951 950#0 -500#0 484#0 479#5 -1304#1 -242 490 -921 -1426 -1433 -1317#2 1522#0 95 -500#3 1303#0 -1522#0 500#3 178 -1288#0 379#1 132 -476 -1284 -1298#1 -238 -1310#0 487#1 -479#5 -1419#7 1308#0 1294#3 504#1 -1255#2 1255#1 175 -210#0 443 -1258#2 -463 -1258#4 543#1 1300#2 1306#1 -489 -1010 -1287#2 -1293#2 -1307#4 -504#4 1302#3 1310#2 1424#1 -387 -1299#1 -1312 -506#1 179 145 -480 -1286#0 1296#1 -187 -500#4 -988 -510#3 176 -925#1 -507 -1256 426#2 -348 1304#0 430#0 1288#3 146 -142 500#0 1300#0 -1419#4 103 1256 951 1305#1 510#3 1306#0 -349#0 -485 -926#1 -147 988 1255#3 1258#3 -1300#1 -512 900#1 992 479#1 1320#5 -950#1 -1302#0 1419#2 -1310#1 111 -504#2 -1313#0 487#0 -1310#2 1010 1287#1 242 500#2 1293#1 108 -1424#0 -1304#2 -349#3 252 463 489 500#1 240 -479#6 -144 1311#1 927 210#0 -1288#3 1317#2 366#1 1290 479#6 -1294#1 502#0 -1308#1 -406 1431#3 105 1512 -1424#3 502#1 1288#2 1307#4 -1291 -349#1 1287#0 1304#1 -379#1 -954 -1419#0 900#0 472 903#2 1302#2 1320#1 142 -1302#1 -1294#3 -504#5 -1304#4 114 953 442 140 1311#3 470 -1322#4 -100 -479#2 1286#0 1424#0 504#5 491 -1257#1 -950#0 -949 -1286#1 1314#0 1498 -1520 110 1311#2 1313#0 -1314#2 -245 1296#0 -1419#1 944#1 -1320#0 349#0 -1293#0 -1280#0 -243 -1311#1 -1305#0 1255#2 -140 1281#0 506#1 426#3 -1320#3 478#0 862#2 -479#1 926#0 -991#1 -1255#0 -110 -505#0 925#0 -1257#0 1320#4 -1320#1 -1297#0 -1311#4 241 -1311#2 -484#0 1307#1 -133 -1304#3 482 -1258#0 -1296#2 -1521 -1255#4 471 -1289 -1431#3 -241 -953 954 -1288#1 -402 468 504#4 -1307#3 -471 -1320#2 -210#1 -141 926#1 -501#1 862#0 1298#1 1309#0 504#3 -478#1 1419#3 -1285 1604 433 -186" id="14"/>
    <taz edges="-1281#0 135 -137 1286#2 158 -1282 -139 176 432 1281#0 1574 -1279 137 1279 1571 -1275 175 1280#1 139 -922#0 431 159 -135 -1277 -1280#1 1572 160 -1426 1278 136 1275 1277 -1278 1573 -136 1282 -1280#0 157" id="19"/>
    <taz edges="1432 1276 -1276 1275 -1275 -1432" id="18"/>
    <taz edges="-928#4 873#1 -1352#5 -1341 -1354#1 -1360#1 -548 -1326#1 -609#2 122 116 531#3 -531#0 1323#5 1323#1 573#1 1337#0 617 866#2 962 180 907 -1349#6 -573#1 1326#1 -651 -1326#3 574#0 1351#3 -1343#6 620#1 990#0 1384#0 1361 -970 -1262#0 -26 895#1 1351#2 -350 644#1 -1343#3 -1381#3 -1343#4 1326#5 1379#1 741#6 530#2 -1359#6 1379#6 -1386 223 656#0 1349#9 1388#5 1323#4 523 639 -269 455#1 -1263#11 -612#0 1349#3 1434 -652#2 1592 -1434 -646 -1354#5 -1353#1 -1352#14 -637 1312 -609#1 1313#6 628#2 1263#0 572#0 150 633#2 -626 1376 628#1 756 -573#2 997#1 1345#0 1263#11 1349#8 -1320#5 -620#0 -1504 901#1 -1326#4 622 -739#5 741#8 -1313#1 -1381#0 1349#6 1388#10 522 895#0 -628#0 1344#1 -1380#3 997#0 -143 1354#5 -625 427#0 1343#6 -694#0 1262#0 972#1 1362#3 -223 1319#0 -658 1263#5 -901#0 1378#1 1354#2 -530#3 364#1 -115 -1388#1 407 530#3 -903#0 -1509#0 -955#1 636#2 1360#4 -901#1 557 357 739#5 974#1 1326#6 -621#0 1342 658 764 -928#5 -116 1267#7 -1322#1 -1331 380#1 1353#0 -628#1 -1388#8 1381#2 610 -405#2 -514#2 861#3 -1307#0 -518#0 866#0 1343#7 -1313#2 148 -487#0 257#1 -553#0 -990#0 106 1351#5 -1351#5 613 -1359#5 1388#4 1387 1381#1 -1353#2 655 981 -971 1263#7 -217 1381#3 1423#0 455#0 1263#9 -635#0 1313#2 -1430#8 -741#6 -1262#1 -211 -1388#5 -981 1318 1353#2 741#9 1431#0 1343#2 657 -627 -916 547 -870 1385 573#0 -1381#2 -1343#5 -1388#2 -24 -741#10 -901#5 531#8 -1597#1 -1378#0 -380#1 149 573#5 276#0 -543#1 -1352#7 -929 1340 -1359#7 531#9 618 651 647#1 739#2 965#2 1261#3 1354#1 -1313#9 -1263#8 624 -531#2 -1359#1 1313#5 1388#3 739#3 516 1352#16 1381#4 572#2 -543#0 -633#2 625 -535#1 -1263#9 634#0 1343#4 -540#1 -530#0 -514#3 349#2 645 -1261#5 -1388#6 1359#0 635#1 1335#2 554 903#0 -1352#8 -1592 -1358 -1380#2 -962 -1343#2 275 362#3 531#6 -652#3 1343#8 -349#2 866#3 860 974#0 -1349#0 -145 531#0 -928#0 1339 1381#0 535#0 1313#10 -608 -624 1352#12 -1360#0 1431#2 -1388#10 955#2 647#0 1384#1 -455#0 1499 364#0 1323#2 511 -1352#4 593#10 1380#2 -1497#3 605 -652#0 955#0 573#4 1326#0 187 -1347 1360#1 929 578#0 652#2 1388#7 1497#1 -1352#11 -1308#0 -405#1 -519 573#6 928#5 1322#2 -1320#7 -1349#1 1313#3 1319#1 -1351#3 901#3 -1263#7 -741#7 1322#0 1353#1 -256 -531#7 1347 1263#8 1259#12 1323#6 -1507 -999 1322#3 349#1 259#1 517 -522 -405#3 -552#0 1323#0 -573#0 514#5 712#2 25 -1261#4 276#1 -866#3 -1323#1 -1388#11 -1352#15 -455#2 -741#9 1388#0 -1352#10 -757#1 -928#6 -1313#11 -871#4 1335#1 -907 1590 1359#6 -1354#4 -1360#3 -555 362#1 1307#0 -535#0 1319#4 26 623 1337#1 739#4 965#0 973 621#1 -992 -1323#0 1596 -612#2 405#5 -1431#1 -1379#2 -1430#7 -1431#0 -154#0 964 972#0 555 396 928#3 1388#9 531#2 712#0 1319#5 1431#1 -1261#1 -389 -652#1 -1349#9 1497#2 1497#3 380#0 636#1 728 -542 871#4 -901#3 -1425 871#3 -516 -1320#6 1507 633#0 -972#1 1263#1 1322#1 -1590 1320#7 -620#2 1261#2 -1422 1356 1345#2 1357 363 -990#3 512 1326#4 358 656#2 -1379#4 -1338#1 -634#0 -1319#4 -364#0 -1388#0 545 514#2 -364#1 -1322#0 -644#1 901#4 1352#13 612#3 -1349#8 -1318 -1379#5 641#1 943#0 -1352#9 -860 1379#5 -1263#0 -427#1 405#1 -1381#5 -1259#12 -531#1 1326#3 521 -361 153 533 389 -427#0 1386 -997#1 -1263#5 520 861#1 -1431#2 1362#4 574#5 1380#0 -487#1 990#1 -997#0 -1351#4 -1349#7 970 -1339 -1379#0 505#3 -1349#3 1261#0 -931 -513#0 -1313#7 -1313#6 -277 519 -648 -1346 -990#1 -505#4 873#0 874#2 572#1 1497#0 -1313#8 -1263#4 -1378#2 -531#4 1343#5 928#6 -530#2 -1348 -1313#5 -647#2 1349#2 -1356 427#1 574#2 634#1 -536#0 1352#9 1362#2 -1351#1 616 -1376 -1388#4 -635#1 518#1 1509#1 -991#0 656#1 -357 928#4 1337#3 -764 1313#14 871#2 560 637 861#0 638#0 720 1335#4 273 892 -1349#2 -557 -531#5 633#1 546 574#1 -520 -1359#2 1313#4 -1323#3 -969 1425 -547 -871#2 487#1 -573#3 -1509#1 1308#0 -521 1380#3 561 -871#3 530#1 535#1 573#3 1352#14 -120 211 1359#1 -1362#4 626 901#2 -1387 -1352#0 -1352#1 -647#0 -260#0 1343#3 1359#5 -1313#4 361 -1340 -657 -1324#0 1422 514#0 -531#9 514#1 514#3 543#1 638#2 968 -363 965#3 1263#10 1344#0 -1338#0 -489 -617 -1352#3 -1359#0 405#2 928#7 -514#0 -1312 -1598 -257#2 -274 1430#9 -955#0 154#0 145 179 -1263#1 120 -553#1 1352#1 -1353#0 -380#0 1351#4 1381#5 -956 1355 531#7 -187 -1343#0 -1384#1 1430#7 -148 -25 438 644#2 -273 455#2 558 965#1 -968 1338#0 1388#1 1321 -1360#2 1335#3 1344#3 935#1 -1263#2 -1359#3 628#0 1352#10 -928#7 553#1 578#1 1388#2 -1352#6 536#0 746 -1388#7 1319#2 1352#11 757#1 -395 -1323#4 -505#3 1261#4 1313#7 -928#8 257#2 955#1 -349#0 -656#1 1350 -955#2 -1323#2 -1380#1 -965#3 1313#13 -1362#3 515 -1352#16 -544 1263#2 505#4 531#4 -612#3 1262#1 -1380#0 -1322#3 1377 -633#1 -1261#3 1324#0 1349#0 -512 -639 1360#2 1352#15 1508 1597#1 -610 573#2 638#1 992 -150 -1357 1423#1 1268 1335#0 -1354#2 619 1320#5 1341 1313#11 -525 458 -739#1 -1313#0 1266 -647#1 -739#0 -739#2 1348 487#0 608 -866#0 257#0 -573#6 999 -1263#6 989 -515 1320#6 154#1 -1379#3 871#1 931 -1361 439#1 -895#1 -1378#1 -1596 -901#2 647#2 928#8 1337#2 489 1349#7 991#0 739#1 -1326#6 1324#1 1598 518#0 -1388#3 -1352#13 612#2 -1313#10 -1351#0 1263#4 -616 525 -866#2 -1351#2 -928#3 1325 1380#1 -895#0 1261#1 1388#8 1379#3 -1508 652#3 -518#1 405#3 -619 -560 -405#5 -276#0 274 -257#1 -614 943#1 -407 -613 -628#2 -1319#0 694#0 542 -1268 -965#2 -1359#4 1346 217 1431#3 -1319#3 861#4 -514#4 105 990#2 531#5 1263#6 609#1 -1267#7 1359#3 574#4 -1497#1 741#7 1349#5 -455#1 -871#0 -349#1 712#1 -540#0 -1379#1 -1381#4 -955#3 1351#1 606 874#1 -260#1 -1379#6 916 -1362#1 1359#7 -1319#1 514#4 -656#2 901#5 990#3 1504 -517 969 971 593#11 1319#3 548 627 552#0 -153 -514#1 -1499 -1360#4 871#0 1509#0 -1343#1 1326#2 -901#4 531#1 -757#0 -1343#7 -620#1 648 -622 260#0 -974#1 -1355 -739#4 1313#1 -1323#5 1352#4 1313#9 -558 1338#1 740 -1343#8 540#0 -623 -1326#5 552#1 936 -1322#4 -741#8 1343#1 1379#4 1382 1351#0 1378#2 1378#0 955#3 -739#3 1388#6 -530#1 -633#0 -545 1388#11 -928#2 1360#0 -1261#0 1313#0 1354#0 -554 362#4 870 -717 -656#0 -871#1 -1354#0 1313#12 -1313#12 -1349#4 -593#10 349#0 540#2 544 -644#2 1313#8 1259#11 260#1 -1261#2 -276#1 269 -1325 956 -1313#3 -990#2 652#1 -259#0 -546 -935#1 1354#3 -1326#2 1352#8 1359#2 -1342 1352#7 259#0 -612#1 1352#6 -552#1 1322#4 -991#1 1379#2 652#0 -561 -540#2 -1597#0 614 362#2 -154#1 -965#1 1349#1 928#0 -1497#2 -618 -892 1362#1 1349#4 -974#0 -1383#0 -578#0 642 -133 620#0 620#2 -621#1 540#1 866#4 -1423#0 -1423#1 -1326#0 -1381#1 -523 -1384#0 -1319#2 1430#8 -1431#3 -1259#11 115 1597#0 -1497#0 1360#3 660 928#2 -1263#10 1331 991#1 -149 1261#5 -1313#13 -1352#12 -1324#1 -866#1 -1322#2 1323#3 609#2 -1354#3 -1362#2 -965#0 -972#0 127 1352#0 -358 612#1 1359#4 861#2 277 -531#6 -973 439#2 -533 -1388#9 -573#4 -866#4 -257#0 -531#3 -531#8 -1349#5 1345#1 -1313#14 866#1 574#3 1344#2 -1350 1354#4 -573#5 -396 -1321 1352#5 1352#3 930" id="13"/>
    <taz edges="-234#4 -840#1 819#1 1418#1 1407#0 846 801#1 -1403 -1415#12 1406#0 -234#2 835 1585 -833 -1415#5 -1502#2 -1407#1 -741#0 830#1 -825#1 -1366#0 -1003#1 1415#27 827#1 10 -311#3 940#1 1415#1 -840#4 -1415#20 1415#21 218 680 -830#3 853 1415#3 828#0 1516#0 -849#1 822#0 -385#0 1415#2 827#0 -911 940#3 -940#6 1401#2 -1418#7 310 -1404#1 1415#6 -234#8 -1401#0 -830#8 1415#7 829#1 938#0 823#0 -783 -938#0 -1415#19 124 -820#1 819#0 -1418#3 1591 838 -830#6 849#1 173 -1392#1 -326 -385#1 -1415#8 -1502#1 -821#1 1418#11 -1401#5 913#4 938#2 1414#2 1418#7 -1418#0 1415#23 825#1 -1409 830#5 -1502#0 -915#0 1393#1 827#2 234#7 -1418#6 -1415#0 -316 315 -1394#0 -819#1 -1269 840#8 -1418#1 385#0 -234#0 -303#1 814#1 1415#24 1527#0 -1415#11 -1415#9 1409 1274 825#0 -1527#0 -801#0 915#0 942#0 -1415#24 -1393#0 840#2 -317#3 -1412#0 1503 -311#2 1414#1 841#1 -1415#16 -830#7 -830#5 -914 1418#3 -819#0 -1501 -307 -848#1 234#2 1404#2 -1404#3 1405 848#2 303#1 840#0 -1418#4 847#1 -839#0 1006 1383#5 317#2 -1392#0 -1404#0 840#1 -1418#8 -822#0 941#0 -840#5 -830#2 -1411#2 -220 854 -234#10 1414#0 -1503 -830#1 -1510 1415#17 -1404#2 -1415#21 -829#1 1404#3 234#9 -1415#17 844#0 -124 -828#1 867#0 836#8 -303#0 -1405 -837 -801#2 832#1 -680 -1411#1 1272 1408#0 839#0 1403 -1528 126#1 -938#2 1415#16 826#1 311#0 -234#7 -848#2 1418#5 1415#25 830#3 826#0 -1418#11 184 234#0 940#0 -832#2 -851 1510 -823#1 234#3 -1411#3 -1591 -850 1393#0 815#2 826#2 -206 815#1 1502#0 -1414#1 317#3 -312 306#1 385#1 830#4 -1415#25 762#1 -317#1 316 1411#1 454#1 -1527#1 234#10 1407#1 840#4 913#1 -835 205 -1502#3 832#2 850 783 -846 -940#4 -1005 -1412#2 830#8 -832#1 867#2 1366#0 351 -828#0 329 -830#0 -1412#1 -1418#9 940#6 940#4 1402 -840#7 906#1 -825#0 -1271#0 1413 -1274 1502#1 1415#9 942#1 919 1415#8 -841#2 1527#1 -940#5 1271#0 823#1 317#1 303#0 -234#1 938#3 -1415#3 -845 1415#10 -317#2 -904 -1406#0 -1410 830#0 913#3 -940#7 -938#1 1401#5 234#6 -1412#3 -940#1 -311#0 1415#20 1410 842 -840#0 -1525 -1408#1 -126#0 940#2 -1402 851 1502#2 308 920 1415#13 360 834 -1415#2 1501 -1415#10 830#6 1269 847#0 1392#0 -815#1 1404#0 -849#0 1415#11 -1516#1 829#0 -847#0 1412#2 -1394#1 -219 -815#2 1408#1 1412#3 1401#4 -842 818 848#0 -1516#0 -826#1 -826#2 1404#1 1416#1 1526 1415#5 204 -844#0 -173 306#0 841#0 -840#3 1502#3 -941#1 823#2 1392#2 -234#5 845 -838 219 -1526 828#1 833 1412#1 801#2 326 -825#2 -942#1 837 -834 -329 1401#3 454#0 840#3 -1003#0 -867#1 -1406#1 867#1 -822#1 1389 -915#1 1411#2 -1416#1 1589 -203 -940#3 906#2 -821#0 -938#3 839#1 -1393#1 203 1412#0 -1415#18 -1415#1 -826#0 830#2 -1401#4 206 309#0 940#7 -1415#6 1516#1 941#1 1418#2 820#1 -1415#27 915#1 309#2 848#1 914 224 -829#0 -1401#3 -1271#1 1407#2 234#4 -832#0 1400#1 1418#4 234#1 841#2 904 -941#0 -311#1 -801#1 1406#1 306#3 1418#8 801#0 311#2 311#3 126#0 938#1 913#0 -818 -234#3 -1415#7 832#0 1394#0 311#1 -823#0 1412#4 -840#6 -841#0 -126#1 -867#2 822#1 1415#12 1415#18 -853 -762#1 -867#0 1418#6 -1414#0 446 -234#9 -1273 741#0 -315 1415#26 -827#2 -840#2 1418#0 1401#1 906#3 -942#0 -1415#26 -940#0 849#0 -1407#0 911 821#1 -823#2 -815#0 -830#4 840#6 -204 -1418#5 -317#0 307 1003#0 -848#0 1415#19 1392#1 -1413 306#2 -839#1 -1418#2 312 -1401#1 -1389 -1400#1 840#5 -827#1 -1401#2 -1272 905 -888 -234#6 -814#1 -940#2 -1415#13 -10 1401#0 -1408#0 1418#9 1003#1 940#5 -827#0 -840#8 -1414#2 830#7 825#2 -351 -854 -1407#2 -205 -841#1 1394#1 1271#1 234#8 -1411#0 -1415#23 -308 1273 234#5 -847#1 840#7 1411#3" id="12"/>
    <taz edges="1374#3 1267#4 1390#3 1333#4 -548 -1360#1 297 -1326#1 -1374#2 -677#8 976 -1421#1 993 962 -677#5 907 -683#1 497#0 -280#2 -236 1326#1 1585 -977 -403#2 662 -651 -933#1 -1326#3 550#1 780 -1373 -1343#6 1384#0 677#0 -676 -1329#2 1361 -970 -26 -1366#0 -1383#3 447 978 -298 644#1 967 -1259#10 -1381#3 -1395#4 -679 550#0 -1343#4 939#5 564 -383 1326#5 -1430#3 -134 1330#0 -1523 1379#1 1398#1 -1267#3 934#1 1379#6 -1386 1328#0 763#2 -1390#2 -403#0 1388#5 656#0 937#0 1383#2 -1515 -939#6 549#0 -766 569 776 -1366#8 1391#1 -770#0 -982#1 1516#0 -1330#1 -652#2 1592 910#1 963#1 -646 -265 -1267#5 -1332 -497#0 1397#1 391 568 -1430#1 565 494#1 1396 -1504 1264#2 -763#3 -1326#4 401#1 264 494#7 622 1267#2 -1381#0 1388#10 474 -556 -384 -1380#3 549#1 -672 -496 -985 664#1 972#1 1343#6 -566#1 670#0 1362#3 -658 383 1421#0 -820#1 819#0 355 1259#7 1259#9 -1388#1 856#2 663#0 -1391#0 -773 -1374#1 -939#3 1360#4 557 1430#0 -297 357 974#1 1326#6 -549#3 1365#0 -456 -677#4 658 570 764 1267#7 89 -1331 -1388#8 495 1381#2 836#1 191 -666 -960 453 678#0 -1427#1 284#0 -570 -939#0 1343#7 1511 908 -761 1582#1 -335 -1329#1 -172 -553#0 -393 -770#2 -990#0 409 -321#2 567#0 975#0 1578 408 963#0 -653 1388#4 1387 -1269 1381#1 655 -1366#7 -674 -567#2 -772 -971 -397#1 1327#2 1329#1 566#0 -567#3 -1390#4 1381#3 1423#0 1391#0 -494#3 -760#0 -1395#2 933#1 -1430#8 778#2 -981 939#6 -1388#5 230 -908 439#0 -566#0 933#3 1527#0 -627 -321#3 -916 -995#1 657 -1267#1 -939#2 -760#1 -1527#0 -281 -662 -1381#2 -963#0 -1343#5 1385 -1388#2 -24 -1000 961 276#0 1390#1 399 1267#1 663#2 651 893 494#6 -1395#0 -644#0 647#1 -549#0 336 1390#7 650#0 965#2 -191 390 1430#5 -1259#3 -1359#1 1388#3 -1328#2 -401#1 1366#6 -670#0 -836#3 1259#5 -246 -1429#1 -819#0 1381#4 -543#0 683#0 -282 392#1 -741#2 278 1343#4 -1264#1 -682 1259#0 677#2 403#2 566#1 645 279 400 1006 1359#0 -1388#6 -939#5 1383#5 1580#1 778#1 27 554 -962 -1592 -1358 -1380#2 275 990#0 765 -652#3 -998 1343#8 974#0 -1259#8 -1349#0 1259#10 494#3 -1430#4 857 -654#1 -409 1381#0 1366#10 -831 766 -669 128 1391#2 1395#3 -1366#4 -1360#0 -781#0 1579 -549#1 1333#2 -1388#10 678#2 -278 1267#0 166 647#0 659 -829#1 1384#1 777 -321#0 -565 774 1328#2 -1390#0 939#4 -107 1380#2 -652#0 -994#1 1326#0 836#8 983 -1390#3 1360#1 -979 -670#1 -781#1 652#2 -1259#7 -1366#3 1388#7 987#0 403#3 -778#1 1367 -1349#1 768#1 -677#0 1581#1 995#0 -668#0 321#1 -1366#11 -1383#4 388#0 -1528 -494#0 768#0 -1327#1 -1396 1259#12 1323#6 1390#6 -999 313 280#0 912 -552#0 -1267#4 -1383#2 -262 663#1 25 -678#0 276#1 -1388#11 -353 1388#0 -1513#1 1366#11 -683#2 549#3 -355 984 1590 -859#3 -1366#12 -907 1366#8 -1366#10 184 320 859#3 165 -1360#3 -555 551#2 644#0 -1397#0 1260 26 -976 -1259#5 -983 172 965#0 1420 497#1 973 -403#1 939#0 781#0 -650#0 994#0 -1379#2 1428#0 1366#5 -1513#0 -769 1427#0 -1430#7 -154#0 964 -1260 972#0 555 396 1388#9 -683#0 301 -933#4 318 -317#1 762#1 934#0 -1328#0 -389 -652#1 1390#2 -1395#3 665 -391 -494#4 -392#1 1265 -569 -550#0 1259#13 763#1 -1327#0 -661#0 -1425 -1527#1 1429#1 763#3 1430#6 335 679 -972#1 -1365#0 1366#7 -1590 118 672 957 -474 -1422 1356 -836#1 -990#3 -457 771 1326#4 182 358 656#2 -1379#4 -1005 749 1430#2 985 -1395#1 -1388#0 545 677#7 1366#0 -96 778#0 -644#1 1515 -334 321#0 -859#1 283 773 -1379#5 1430#4 1379#5 440#0 -763#2 682 -959 -893 397#0 670#1 981 -768#1 -1381#5 1527#1 -1259#12 1326#3 388#1 1336 1390#4 977 939#2 1264#1 317#1 -354 775 1505#0 389 1386 1428#1 1364 181 891 1327#3 763#6 1362#4 -912 1259#8 549#2 -264 979 384 1380#0 677#5 990#1 265 401#0 782 970 -1379#0 939#3 -452 763#0 -551#0 -1421#0 -994#0 -663#1 1390#5 -277 -648 -1366#2 -990#1 -1259#9 1333#0 1366#4 1343#5 -397#0 -1525 284#1 1366#9 1581#0 -283 -957 457 -647#2 1011 -1356 -550#1 1349#2 1429#2 -859#4 -684 998 321#3 -299 -388#2 1373 1362#2 -1388#4 -280#0 920 1395#1 229#1 958 88 1366#1 -564 760#1 1505#2 -778#0 656#1 933#0 -357 -1333#1 -749 -678#2 -1363#1 -1430#0 -764 -1430#6 229#0 560 324#1 1269 836#7 -1349#2 -557 -778#2 319 674 892 1259#3 247#1 282 -1359#2 1372#1 -969 1002#0 -975#1 1425 1380#3 1427#1 1267#3 561 -1391#1 -1395#6 -771 -120 -403#3 1359#1 831 677#3 -1259#13 -1362#4 -932 1513#0 1259#2 -1387 -647#0 -1516#0 -984 -1430#2 960 -657 836#2 -300 -1514 -1366#5 1422 1526 968 285 -659 1329#2 280#1 965#3 263 910#0 456 -1359#0 -1333#3 -336 -763#6 -1430#5 1430#9 -274 154#0 969 -1264#0 120 -553#1 1327#0 1381#5 -956 -1327#3 -321#1 -1364 1430#7 -1384#1 -1259#14 -1526 -390 -25 -400 1577 -273 438 644#2 558 661#1 781#1 -284#0 965#1 1430#1 -968 -567#0 980#1 1388#1 354 761 932 -1329#0 -1360#2 392#0 -1359#3 299 567#1 1366#12 -980#1 553#1 975#1 -1333#0 1388#2 -1428#1 -1388#7 397#1 -939#4 -395 760#0 -767 393 1004 676 856#3 -656#1 -664#1 -492 -649 -1380#1 -965#3 677#8 -494#2 -1362#3 334 770#2 -1267#0 -488 -654#0 567#2 1421#1 -1429#3 -568 836#6 -118 -1380#0 1365#1 -203 -1333#2 1523 1589 959 -388#1 1349#0 1505#3 937#1 1360#2 1508 -975#0 -859#0 1580#0 403#1 836#0 203 -836#7 1423#1 654#1 1268 398 661#0 -774 321#2 -673 -1002#1 668#1 1264#0 -647#1 -1429#2 -739#0 1259#4 563 986 -996 989 -1267#6 440#2 767 -650#1 -963#1 -677#7 154#1 -1379#3 232#1 1513#1 820#1 -677#2 -1361 -980#0 439#1 356 164 647#2 1429#3 300 -1326#6 -1388#3 -495 496 224 -408 994#1 -279 -494#1 1395#2 1380#1 1388#8 652#3 -494#5 -933#2 -1333#4 -961 681 1379#3 -1508 381 999 1383#3 995#1 1002#1 -551#2 -560 1366#3 1395#6 -276#0 274 -614 -859#2 1395#5 232#0 1328#3 -858 -1427#0 -401#0 836#5 -987#0 -1268 -965#2 1369 -1359#4 280#2 559 -1372#0 683#1 990#2 -559 -1397#1 762#0 -1267#7 1359#3 653 -567#1 494#5 556 982#1 1259#1 -780 933#2 677#1 1366#2 352#1 -987#1 -319 -836#2 -1379#1 -1381#4 1374#1 -1267#2 1374#2 281 1395#4 -663#2 -1379#6 916 -1362#1 650#1 -777 -656#2 -776 990#3 1504 971 -681 -763#1 -1259#1 548 627 552#0 494#2 262 -1360#4 -284#1 -549#2 1326#2 769 -757#0 -1343#7 228 648 1267#6 -622 -1366#9 -978 -974#1 1000 1267#5 -562 -1366#6 -494#6 1383#4 -966 -820#0 -1395#5 -558 -665 -1369 -1330#0 -1343#8 552#1 -1326#5 401#2 -398 1379#4 1363#1 -986 1382 -762#1 1259#14 933#4 -664#0 -836#0 649 1500 -668#1 -1002#0 856#4 779 -1390#5 1388#6 1505#1 -545 1388#11 -836#6 1360#0 353 -401#2 -554 -1004 859#1 1430#3 -656#0 440#1 107 677#4 -762#0 1333#1 246 1259#6 856#1 -644#2 494#0 1259#11 1270 -276#1 956 770#0 -982#0 -990#2 -1511 652#1 452 551#0 -317#0 -551#1 858 298 -1326#2 -401#3 -27 1329#0 1359#2 494#4 987#1 1584#1 -1327#2 -552#1 -768#0 -993 1374#0 -1259#4 1379#2 388#2 652#0 -933#3 -1500 -561 966 -667 -671 -388#0 -263 -1428#0 -779 614 1333#3 -154#1 -965#1 -910#0 1349#1 -1259#6 -782 -995#0 -1259#2 -892 1362#1 -1011 683#2 -1366#1 -1390#6 -933#0 -974#0 -497#1 -1383#0 163 -1328#3 488 551#1 -392#0 1368 -677#3 1514 -1374#0 654#0 -1423#0 -1423#1 -1326#0 -563 -1381#1 -675 675 -1384#0 492 894 1430#8 669 -1259#11 996 -967 1360#3 660 1331 -663#0 1332 -857 314 673 -910#1 -836#5 668#0 836#3 -453 -1362#2 -677#1 -965#0 -972#0 -247#1 567#3 -1371 -358 -280#1 -1390#1 1359#4 -356 401#3 277 -973 -399 -1388#9 1330#1 667 -1374#3 -1363#0 134 684 1327#1 982#0 96 -958 980#0 859#4 562 -1259#0 -396 1395#0 859#2 -763#0 -1368 -1264#2 -775 859#0" id="11"/>