<tazs>
    <taz edges="-526#0 1148 715#1 1233 705#1 678 -869#2 1164#2 -358#1 -895#0 -521#2 -749#1 797 1321#5 1495#1 806#0 692 676 527 -575#0 -581#5 857 -786 -612#0 496 1339#3 -895#4 1230#1 292#0 863#1 572 -1423#7 -601 1207#1 566#1 -872#1 528 -1502#1 -790#2 1606#1 -316#1 -365#2 721 1186#1 219 755#4 -908 1159 1158#1 -389 354#0 625#1 755#0 369#1 352#0 -751#0 276 1183 521#12 1230#0 -278#1 863#5 -528 -287 1228#0 782 1221#2 1216#1 240#1 1231#2 -755#3 -369#0 785 -521#11 -810 389 699 -576 701#0 870 1223 1191 595#0 1503 728 -821#1 689 -634 631 571#4 -1500 1226 -564#0 407 724#2 -861#1 -684#0 -1502#0 718 -922#6 922#7 -1607 -564#2 -591 1566 516 860#3 751#2 502#1 1158#0 502#2 -736#0 -1495#1 -1606#1 -755#1 -585#0 808 1163#2 802 787 786 -353#0 1151 -568 530#2 566#2 751#3 751#1 -606#0 -681 1320 353#0 -922#2 359#2 -590#1 603#1 -290#4 585#2 -696 373 594#3 680 351 -600#2 -521#5 -749#2 359#0 -278#3 807#2 237#2 1185#2 -375#0 -736#3 241#0 -603#0 -790#3 -860#4 -626#1 -564#1 365#0 788 792 -394#4 571#1 -863#5 -581#3 602 251 1153#1 863#4 521#11 600#1 -362 1181#1 -864 -783 -869#1 705#2 289#3 -373 -1509#4 -716#0 709#0 -824#0 860#1 585#0 -715#0 685#2 -407 -801 564#0 -730 1187#2 869#2 178#1 -731#3 -725 778 -797 -742#4 359#4 595#2 -532 626#1 525#0 -817 358#1 408 869#0 -1379 751#0 440#3 -1321#1 736#3 -731#1 -177 716#0 -595#0 -347 -1321#5 1495#3 -686 1225#0 700 702#0 -416#0 -807#1 777 1269#1 1182#0 1218 287 746#1 908 -685#0 562 -1321#2 235 -701#0 -278#0 710#0 -815#1 1161#2 755#2 -521#1 -1359 574#1 -789 -523 -1495#2 707#4 869#1 -289#4 -742#1 580 -860#3 1235#1 1150#0 801 -790#1 1154#1 -611#1 -579 817 1215 922#3 -416#1 755#5 -233#1 1187#3 -788 -505 634 1232#1 362 -292#0 581#2 570 810 357#1 750#0 865#3 724#0 -289#2 -525#1 -865#3 278#3 375#1 1568#1 1231#1 1185#1 1224#0 1227 1180 4#1 684#0 1230#2 -912#2 394#5 720 278#2 455 -781 749#1 294#3 933#0 1269#4 -289#1 -314 -687 907#3 -577#0 233#1 357#2 1388 294#0 -351 353#1 795#0 -793#0 271 290#2 1506 -731#2 744#0 -685#3 731#1 1500 -702#1 270 1214#1 -1516#0 347 617 517 -603#3 736#2 1569 -821#0 1187#1 606#2 1184#1 394#4 1158#5 1208 413 577#0 -796 -383 348 394#1 793#0 -353#2 -731#4 178#0 358#0 -755#4 890#1 290#3 -365#0 1158#2 922#4 1153#2 -1606#0 567 816#2 922#8 1225#1 352#1 3 790#1 793#1 -585#2 575#0 1187#0 595#3 -1498 -1355#1 1221#0 704 683 1164#0 1494#0 922#5 779 530#1 -895#5 368#2 412#0 -822#0 1239 -233#0 1509#1 755#8 1185#0 -394#2 -751#6 1339#1 889#1 -710#1 1381#2 -755#0 694 590#0 -496 -865#1 564#5 -806#1 -582 1207#4 871 790#6 -614 315 889#0 439#7 -569#0 -1269#1 1254#1 280#1 -615 -804 815#0 495#1 -570 865#0 1235#0 585#1 -408 -564#4 521#1 791 -521#6 755#1 -747 -784 1158#4 1161#0 -507#1 -1342 731#4 521#0 1206#2 -273#0 -594#1 -594#2 1207#2 571#0 -295 1220#0 1231#0 -274#1 -581#4 -731#5 -750#0 368#1 -805 566#0 611#0 630 359#1 922#6 1153#0 873 582 603#3 -521#8 821#0 -292#1 -3 1206#0 1502#1 -710#0 -912#1 -807#0 898 526#1 -353#1 -1269#4 -865#0 529 1153#4 1321#6 709#1 355 -290#1 936#7 581#3 -746#0 -922#7 707#1 -583 592#1 -717 601 576 858 -702#0 -922#3 -612#1 359#3 -1502#2 1423#7 -863#2 314 1149#1 383 353#2 1339#2 789 -1321#4 -890#0 -4#0 -1501 -521#4 -782 564#4 439#4 611#1 -289#3 -574#2 -566#2 316#1 525#1 -890#1 -574#1 1499#0 -278#2 -863#1 1607 -4#1 -502#2 -863#0 -526#1 -1321#3 747 783 1565 790#5 -1509#3 507#1 375#0 -744#0 -594#3 1187#4 495#0 696 717 1206#1 -684#1 790#3 -611#0 -802 1229#1 569#1 289#4 809 -1269#3 -912#0 793#3 865#5 895#5 -581#0 1217 -872#0 -577#1 742#4 -589 -495#1 688 439#2 590#2 -564#5 594#1 -501 170 -595#5 1568#0 416#0 -251 294#1 -235 1497 1150#1 589 -750#2 394#3 1501 -375#1 865#2 -564#6 -723 -933#0 -860#1 578 1163#3 686 872#1 -809 1221#1 -394#1 274#0 1205 907#1 1359 -600#1 394#0 864 521#6 1181#0 604 1495#0 804 1165 1321#4 784 581#6 1147 1605 524 354#2 1234#0 -861#0 -705#2 1232#3 595#4 1158#3 1421 1237 742#3 -521#12 798 -815#0 1242#0 1238 1224#1 -606#2 -722 1341 861#2 -581#1 571#2 594#4 1 1156 290#1 -822#1 240#3 360 -352#1 907#4 -352#0 -751#3 1242#2 -617 1509#2 440#6 -1435#0 684#1 -860#0 -724#1 -289#0 280#0 1496 -366 292#1 806#1 -616 899 531 -700 -865#2 1213 -1494#1 -603#1 -808 272 790#0 316#0 1158#6 574#2 860#2 722 815#1 359#5 -701#1 -698 -521#3 716#1 -1495#3 1224#2 710#1 -606#1 188 594#0 -368#2 -368#1 -595#3 600#2 564#1 1228#1 860#4 1219 1157#0 -208#0 795#2 -793#2 233#0 394#2 -816#1 790#2 1498 592#0 416#1 595#1 1201 248 354#1 1505 290#4 707#0 742#1 -736#1 -936#7 1207#3 1271 701#1 1186#0 -755#8 1345#1 -742#0 1499#3 -1508 -315 1177 -708 521#2 731#3 -1509#0 208#3 -706 -1494#0 -715#1 -566#0 -863#4 1381#0 -861#2 -394#3 -394#0 241#1 -731#0 1242#1 -1320 1254#0 1200 -274#0 1149#0 612#1 1499#1 -394#5 289#1 289#2 -704 1321#0 -780 505 -1345#0 795#1 -592#0 -288#1 -791 1160#1 748 -695 1269#3 1516#0 707#3 -269 755#7 -195 724#1 1339#0 237#1 745 -755#7 -515 -807#2 1316#2 269 -625#0 821#1 -742#3 -1506 -521#0 -564#3 731#2 -720 755#3 564#3 -590#2 -531 -1271 1232#2 822#1 440#0 274#1 731#5 1499#2 -626#0 -691 237#0 240#2 742#0 -530#0 -800 -360 -595#1 275 712 -358#0 -595#4 515 751#5 -793#1 -685#2 523 279 1203#0 1216#0 1214#0 1502#0 614 575#1 -595#2 1269#2 -1509#2 726 -778 715#0 1232#0 1385 -1355#0 -514 -241#0 -88 736#1 1160#0 1355#0 366 -724#2 -705#0 793#2 615 890#0 606#1 -594#0 -1341 -689 751#4 -922#8 356 1244 -751#1 824#0 -755#5 -1509#1 521#4 -746#1 1494#1 1157#1 521#10 681 -755#2 -683 1212#0 -455 -873 -1381#0 1212#1 -869#0 -857 695 439#9 1494#2 1342 755#6 283 -272 -290#2 860#0 922#2 590#1 254 -705#1 -871 -290#3 1153#3 1495#2 707#2 -1 -1381#2 -785 1163#0 -750#1 -580 -751#2 1154#0 564#6 895#4 -790#5 526#0 1321#2 1355#1 822#0 412#1 907#0 -707#3 1321#1 685#1 -219 -922#4 687 -1497 859 1502#2 781 568 -368#0 -707#2 581#0 290#0 698 -922#5 -592#1 1229#2 -736#2 288#1 521#9 -751#4 736#0 -707#1 1321#3 -530#1 368#0 790#4 -755#6 -1321#0 725 -792 -936#6 -270 -188 744#1 1567 357#0 -749#0 571#3 -604 -790#0 -707#4 -599 -859 521#5 -688 -726 616 -502#1 -1605 865#4 780 872#0 365#2 -728 -368#3 149 -816#0 1162 -276 581#4 588 861#1 1204 581#5 -716#1 583 577#1 -692 -678 532 564#2 -594#4 866 273#1 1203#1 -502#0 805 -525#0 -694 -495#0 -718 1234#1 -290#0 606#0 295 -709#1 -631 -628 -707#0 240#4 569#0 -1345#1 907#2 -751#5 -1269#2 -575#1 -630 1435#0 237#3 865#1 -860#2 -790#4 -798 -1355#2 807#1 861#0 439#0 521#3 821#2 -603#2 628 1509#4 -273#1 595#5 -1502#3 599 -1505 1207#0 368#3 -865#4 -288#2 1379 -699 1182#1 1184#0 594#2 912#0 912#1 -316#0 278#0 440#2 685#0 1178 750#1 -192 -712 591 1564 816#0 863#2 -787 -248 746#0 -806#0 288#2 912#2 -709#0 -889#0 273#0 439#6 -581#6 625#0 530#0 1182#2 357#3 936#6 1222 -283 -1495#0 730 -1494#2 -602 -527 581#1 -578 4#0 521#8 1355#2 -685#1 1606#0 751#6 702#1 1202 691 603#2 750#2 -566#1 -744#1 278#1 685#3 -581#2 705#0 -724#0 1166 148 294#2 -590#0 1502#3 -779 1181#2 -521#9 749#2 -585#1 440#8 514 -521#10 796 1509#3 289#0" id="1"/>
    <taz edges="" id="20"/>
    <taz edges="356 1479#2 473#0 -493#4 -946#2 334 865#5 897#0 1529#0 335#2 189#0 1301#1 -495#1 1300#1 1304#1 1423#0 472#1 -501 1479#3 1289#0 472#0 1309#3 189#1 948 -1283#1 489#2 -1296#1 496 -1299#1 -1308#0 453 -1305#0 -223 1283#1 -985 -1290#3 -460 944 1290#0 -1423#7 -1435#3 942 1304#2 -1529#0 487 1528 -1304#2 -1290#4 457 1296#4 1302#2 -1290#1 -489#2 223 1492 354#0 376 1519 -472#0 -493#0 -897#2 1308#0 1171#2 1295#2 -1295#1 1152 -1258 -1423#4 391 225 894#1 989 1305#0 1299#1 -367#0 -1300#0 -1531 -474 1531 1299#0 -1260#3 -1316#1 -470 -1307#0 1295#1 1172 467#1 -459 -949 1290#1 -452 -1297 -1309#1 489#4 1307#1 946#0 1304#0 -335#3 1504 222 -1296#0 333 -466 -1519 1423#3 -1296#2 478 921 945 -489#0 -1492 -1309#3 -1307#1 -1435#0 1296#3 1316#1 1423#4 -947 -894#1 -335#1 -950 1493 1283#3 -1302#0 -920#0 458 1309#2 1309#0 897#2 -988#1 -83 -1423#2 -1527 1487 -376 -224 489#3 460 897#1 950 -1304#0 -457 1259#1 471 -1290#2 1423#2 1423#6 493#0 -493#5 -487 1283#0 1316#0 1170 1435#3 1305#1 1260#3 14 -1290#0 -1308#1 -496 -493#1 1260#1 920#1 1308#1 947 1307#0 946#2 493#5 1169#0 493#4 1301#0 1290#3 -946#1 354#1 -1259#0 985 -495#0 1309#4 -1309#4 220 474 -333 -222 495#1 1527 -1300#1 -335#0 946#1 -945 -1296#3 1289#1 1435#0 237#3 -1302#1 489#0 1290#2 335#3 1259#2 1296#1 -489#3 -946#0 1295#0 1260#4 -480 493#2 -1260#4 -1423#6 -1289#1 -1283#2 1302#0 -453 -989 452 -221 -897#0 -1529#2 -225 1479#1 -395 462 1300#0 -1260#2 -1316#0 -1423#5 -1259#1 -1295#2 -1504 335#1 -391 493#3 -1304#1 920#0 -1305#1 -1309#0 1316#2 -948 -1260#0 -467#1 1290#4 1570#1 -489#1 1529#2 480 479 -493#2 -462 -227 1529#1 -461 -897#1 -921 -489#4 -1295#0 -473#0 367#1 493#1 -1304#3 1289#2 1309#1 -1283#3 -1301#0 -1289#2 1423#7 -1296#4 -473#1 1423#5 -1283#0 1258 1570#0 -1260#1 -1423#0 1296#0 1007 -1007 -335#2 -471 -478 -943 466 -472#1 1423#1 473#1 -942 1302#1 470 224 1168 894#0 -367#1 -1289#0 1283#2 -1529#1 459 915 227 395 -944 -1423#1 -493#3 461 -479 -467#0 1296#2 1304#3 1169#1 -1299#0 949 1171#1 -334 1260#2 -88 -915 -1302#2 -226 489#1 -894#0 -1259#2 -1309#2 943 367#0 495#0 226 335#0 1479#0 -1423#3 -1528" id="14"/>
    <taz edges="-1283#0 1283#0" id="19"/>
    <taz edges="" id="18"/>
    <taz edges="1358 1384#0 -526#0 433#1 -611#0 569#1 433#0 1197#0 598 1193#1 1348 -910 -1345#6 1196#0 151#0 521#4 1391#9 865#3 865#5 895#5 897#0 -895#0 -1384#5 521#10 968 1325#5 -525#1 -865#3 1195#1 -895#3 -1357 -521#2 335#2 643#1 -749#1 -1391#2 1269#7 1391#0 -996 -536 1321#5 -255 -564#5 610 901 -501 -537 -1381#0 416#0 17 -396 -258#0 -343 -251 -1345#4 -1348 -648 394#3 551 1342 994#1 -1362#2 865#2 1192#1 860#0 -564#6 539 -1384#1 -612#0 -243 -959 259 444#1 1339#3 -503#2 -895#4 -922#0 -860#1 -756 394#5 720 537 1426 242#0 -1435#3 635#1 -1381#2 638#1 -601 749#1 -1502#1 -336 1606#1 -951#3 -968 564#6 -394#1 -508 -1325#0 895#4 953 969#1 1188#0 -1389 -1391#6 1359 -600#1 526#0 864 1384#4 521#6 239#0 -1360 1321#2 604 -951#1 895#2 1355#1 1598 -607 1321#4 -1516#1 1388 1167#1 1605 -1345#7 257 -971#0 258#1 -351 625#1 -1362#0 651 1321#1 -535 1345#7 -854 1391#5 1192#0 1384#3 -647#1 352#0 369#1 1506 970 -951#0 -731#2 -1391#1 -922#4 731#1 989 521#12 1391#11 649 986 966 16 903 110 -1516#0 1384#1 -521#12 -1384#3 998 1502#2 1362#4 617 1211 962#3 -1325#5 1514 988#1 -901 -603#3 -368#0 1325#1 -598 240#1 -638#0 1333 951#1 952 -1352 -15 -1323 1341 -962#2 -951#2 -521#11 1188#2 378 1352 409#1 394#4 -1391#3 -1381#1 -647#0 243 -1327 969#0 647#0 -952 -922#5 -1429 394#1 1191 971#0 521#9 -503#3 951#2 -1511 -978 409#0 1600 240#3 -731#4 1321#3 536 -530#1 368#0 962#0 478 -352#1 1350 -1321#0 -1435#1 -1391#10 967 351 512 -352#0 -617 -503#1 -1435#0 1189 643#0 922#4 -1606#0 -860#0 635#2 -335#1 922#8 -546 1270 352#1 -962#1 -564#0 1261#11 959 1391#10 -1345#3 -643#0 -1391#0 1176 255 1384#2 1309#0 -1502#0 -988#1 -616 -1355#1 -1427#0 -642 1345#3 -749#0 -865#2 -603#1 -613 1190 503#0 987#1 -604 -922#6 538 -643#1 -962#0 503#4 1357 -1344 922#7 860#2 -886 545 618 646 911#1 -1607 510 922#5 1345#6 -564#2 -599 511 -1269#7 344 521#5 -1343 258#0 860#3 -1363 -895#5 530#1 922#2 -521#3 368#2 756 -384 911#0 -239#1 -538 -539 616 -649 -1606#1 1511 -1605 -635#2 346 -610 865#4 -368#2 978 -368#1 1391#2 -543#1 605 1391#1 564#1 509 600#2 -242#0 -368#3 -609 -1325#4 -394#2 256 -1391#5 530#2 1339#1 1435#3 889#1 1320 638#2 508 860#4 -643#3 -643#2 1362#2 -635#1 -1362#1 -895#2 -922#2 1363 1381#2 -385 -1325#1 603#1 951#3 -967 638#0 886 987#2 394#2 -962#3 -551 239#2 -346 -994#0 416#1 -865#1 -239#2 -1391#8 -1325#2 -600#2 1174 -1384#4 1323 -521#5 1179 532 564#2 1196#1 895#1 1389 647#2 -544#0 564#5 1427#0 -1384#0 1194#1 1505 -614 965 -502#0 -525#0 895#3 889#0 -1264#1 -1391#9 -543#0 -569#0 1325#2 241#0 962#2 -639 608 -603#0 -615 -628 -16 503#5 -647#2 -605 240#4 -1426 -637 -860#4 -1345#1 -626#1 569#0 -564#1 -544#1 1209 -564#4 1345#4 521#1 -394#4 1575 503#2 -1333 -521#6 988#0 -335#0 251 521#11 600#1 -969#0 -970 444#2 -1391#11 -1600 -864 854 -444#2 -630 -345 1429 -507#1 1345#1 -1342 549 1435#0 -1264#0 -510 1177 -708 521#0 -1325#3 521#2 -638#1 731#3 -953 865#1 -860#2 987#3 544#1 -608 -969#1 -988#0 1381#1 -1355#2 -895#1 1381#0 860#1 -394#3 521#3 -1270 241#1 -731#0 1391#7 -239#0 396 962#1 -1427#1 -731#5 -1320 643#2 -603#2 368#1 611#0 564#0 630 343 -548 -989 628 1362#0 500 433#2 -1362#4 -897#0 607 922#6 612#1 -1502#3 -1505 1343 599 603#3 -394#5 -1391#4 368#3 -521#8 1264#0 609 -865#4 1321#0 -731#3 1576 1379 504 -1345#0 1502#1 505 647#1 748 -922#8 -987#3 1516#0 1391#4 971#1 345 1516#1 1482 335#1 922#0 -195 1339#0 1384#5 1178 -515 685#0 -1309#0 -625#0 1195#0 1438 -712 -534 -865#0 1325#3 1362#3 -1506 -521#0 1321#6 -532 -564#3 626#1 731#2 525#0 1261#12 865#0 996 -509 -1362#3 543#0 -922#7 564#3 1391#6 239#1 961 1435#1 548 -1349 -238 -1379 1391#3 535 601 1577 1194#0 -922#3 -612#1 -966 1264#1 1515 534 -889#0 -1502#2 -1321#1 -731#1 1570#0 -1261#12 731#5 625#0 636 -626#0 -1350 530#0 1390 1339#2 -1358 -344 -1345#5 -256 1345#5 444#0 -1321#5 -511 240#2 -1321#4 -416#0 -335#2 -478 -259 -503#4 -530#0 -1598 -521#4 1362#1 564#4 1349 1182#0 611#1 639 503#3 712 242#1 543#1 -545 -258#1 -685#0 515 -987#2 521#8 523 525#1 -1390 -1321#2 -618 -17 1502#0 552 614 -1261#11 1355#2 -378 1391#8 -971#1 1344 1606#0 -444#1 -503#0 -507#0 -521#1 1193#0 507#0 648 -987#0 -512 603#2 -1359 613 1195#2 -523 1427#1 433#3 1607 1198 1385 -1355#0 -1345#8 -860#3 -241#0 -526#1 546 -242#1 385 994#0 -552 -1321#3 -1384#2 1325#4 1345#8 1355#0 -549 643#3 -611#1 151#1 1565 911#2 -994#1 922#3 1166 -1391#7 -416#1 148 1502#3 615 642 507#1 -444#0 -521#9 -965 -987#1 -1341 -199 987#0 503#1 526#1 731#4 1188#1 1325#6 -521#10 -1515 -505 335#0 -1514" id="13"/>
    <taz edges="-832 1256 1243 -106#0 834#5 -292#0 -840 -1273 1244 1599 -105#0 810 1489 846 824#0 -297#3 1155 -1509#1 -824#1 -841#1 838#1 1571#2 -1403#0 1395#2 824#3 -1395#0 1396#1 754#1 -1404#3 -1513 294#1 1513 -835#2 -937#0 843#0 1403#1 1415#0 -933#2 1413 -826#2 1230#2 1525#1 -933#0 824#8 292#0 -829 -1 1526#1 1574 937#1 1240#0 834#6 842#1 1410#1 294#3 933#0 836 -1405 907#1 -842#2 -1407#3 819 1534#1 -908 907#3 -374#1 -909 835#2 -1392 936#2 -824#4 -847 1571#1 -937#1 822#0 828 1147 294#0 907#0 302 936#5 -1417#1 -861#0 -1404#5 -1410#1 -793#0 936#4 1525#2 1237 -1523#0 -841#0 1485 1248#1 -836 -1411#1 933#2 -1411#0 -1517 337 -293 824#4 1395#0 -1002 293 -1397#1 -815#0 1407#4 -1404#2 1525#0 1571#3 1242#0 -821#0 1238 1275 1517 861#2 1571#0 1407#2 -810 1 -1599 -1409#0 1404#0 -936#4 -819 -1404#1 348 -844 -1532 905 793#0 1411#0 288#1 1484#1 -822#1 1250 -298 -821#1 106#1 -297#2 -826#0 -818#0 936#3 1409#0 -1414#2 -848 842#0 907#4 -1404#4 818#0 -1415#1 -933#1 1509#2 -1404#0 1245 -1408 -1407#2 1404#4 -824#8 -936#6 -1535 816#2 1003 793#1 -834#4 -824#5 -824#2 -936#5 292#1 843#1 936#0 -861#1 1241#0 1406 297#2 806#1 -1533 -1410#0 899 -842#1 -824#6 1417#2 1414#3 824#6 -1406 1404#2 -936#0 815#1 -1414#1 -828 1408 816#1 1410#0 1526#2 -822#0 1484#2 -1403#1 -834#3 1509#1 1484#0 1411#1 826#0 1526#3 -1416 1416 -816#0 1407#0 -905 1274 -1407#1 -835#1 1407#3 861#1 -793#2 1241#1 1397#1 -816#1 818#2 -834#0 1240#1 824#1 -834#2 -824#3 1572 1481#1 775 1253 1481#3 933#3 1251 1412 807#2 -806#1 1414#1 834#0 790#6 1480 315 832 105#1 -936#7 295 1271 1252#1 -834#6 835#0 815#0 -1407#4 -1414#0 907#2 -938#1 -301 -1417#2 297#3 -818#2 1409#1 826#1 -1534#1 -814#1 1414#2 844 829 -1508 1397#0 1248#0 -315 -824#7 1523#0 671 -1509#0 -826#1 1410#2 -839 -1410#2 834#3 -754#1 -399 -824#0 -297#1 807#1 861#0 1523#1 -861#2 -671 -813 -295 -936#3 1415#1 826#2 1417#0 1533 297#1 1242#1 821#2 813 839 -1275 -1395#2 -1417#0 933#1 1403#0 1407#1 831 845 1000#1 1534#0 -845 824#5 1417#1 111#1 821#0 -292#1 -938#0 1404#3 814#1 838#0 -288#1 -936#1 834#2 297#0 842#2 374#0 -374#0 -1415#3 -1395#1 104 -807#0 898 -775 -818#1 -807#2 -1412 -337 1249#1 821#1 937#0 1395#3 -1397#0 -1534#0 1404#5 848 1249#0 -814#0 909 -934 -827 -1000#0 298 1526#0 936#7 816#0 -1413 841#0 -838#1 -1271 1405 1415#4 -936#2 822#1 1252#0 824#2 827 -1415#0 374#1 1483 -302 -843#0 1481#2 -1396#1 938#1 -842#0 1000#0 -835#0 936#6 -1396#0 1273 1524 -838#0 -807#1 1396#0 908 -1274 -1414#3 -793#1 -834#1 1392 1415#3 840 -833#0 1236 -297#0 -831 -834#5 936#1 -815#1 1404#1 -1509#2 818#1 1369#0 833#0 -834#8 -1000#1 833#1 934 824#7 835#1 834#4 294#2 -1509#3 1395#1 793#2 834#8 1415#2 1481#0 301 -933#3 841#1 -1407#0 1509#3 -833#1 1246 -1415#2 -1369#0 -1523#1 938#0 834#1" id="12"/>
    <taz edges="1358 1384#0 410#1 760#0 935#3 1338 433#1 330 1332#1 -1266#2 445 -342 390#0 -999#1 -1261#9 433#0 1197#0 -667 964 -752#1 -1433#3 -910 -1269#3 -1345#6 -387 -755#5 1196#0 -997 -975 1210#1 1391#9 960#1 -1384#5 968 672 -755#2 1195#1 643#1 928#0 1369#9 -1391#2 1269#7 -1008 -1520#1 -992#0 -996 1391#0 542#1 -255 -560 -654#0 1212#0 1331#0 901 -1261#1 641#0 397 1520#0 -852 1212#1 1368#0 17 754#1 1369#5 -258#0 -343 -661#1 372 -1345#4 -1425#0 -541#0 -668#8 1261#0 -648 377#1 -955 483#0 551 955 1330#0 283 -764 -1362#2 539 -1384#1 -935#4 259 -959 761 557#0 -1367 1261#2 987#2 -756 -392#2 556 481 -1329#1 1369#12 -673 -906 1426 -1261#2 341 880#3 885 999#1 635#1 654#0 -555 977#0 763 -1261#13 1261#9 1334 -935#6 880#2 -380 991#0 1008 -741 1269#4 -968 635#0 660 767 904#1 953 853#2 969#1 1512#2 755#4 -1389 -1391#6 -246 559 1534#1 -390#2 -398 1384#4 438#7 658 669#1 247 -1360 -1335#4 -979#1 979#0 -999#0 878#0 980 446 -389 1598 -660 -284 329 977#1 -390#1 -652#0 -954 1365 257 1388 1167#1 -266 -1345#7 1369#1 258#1 -971#0 651 957 229#1 -1362#0 -1261#3 755#0 668#8 972#1 -535 -1521 1345#7 1391#5 -1261#7 -664 -1266#1 -1369#12 -1332#0 1522 -1507 1384#3 386#1 668#4 -647#1 -853#1 1368#1 970 -979#0 1369#6 976 -1391#1 -674#0 -1523#0 669#0 1391#11 388 986 -766 649 654#2 926 966 16 -1001 1384#1 -1384#3 -1369#11 -655#1 -381#1 -928#1 1362#4 998 -218 -485 1211 1433#1 -760#1 962#3 -1398#0 -483#2 482 -1002 1261#7 1424 974 -901 -282 652#0 -977#0 661#0 878#1 555 438#0 1242#0 -638#0 1333 -755#3 952 -15 1238 -18 -285 -962#2 -1369#2 852 1188#2 263 560 378 409#1 -392#0 389 -1522 853#0 -1391#3 1001 328 -1269#5 -647#0 880#0 -762#2 -1398#7 -952 647#0 766 -1429 851 958 992#1 -1331#1 -928#2 -1532 -669#0 876#0 971#0 1269#5 -1511 -262#1 -657 -542#1 -978 -1432#0 1600 -904#1 409#0 1332#0 -446 -755#4 324#1 -322 762#0 962#0 -381#0 -1261#6 -1261#10 390#3 -388 668#7 -483#4 967 -1391#10 752#0 -379 1335#3 -957 380 1242#2 -483#1 -960#1 -668#5 542#0 1329#0 1189 643#0 1261#13 635#2 -1535 -558#0 -963 1261#5 -546 1003 1270 377#0 -762#0 -340 -1335#2 381#0 -1266#0 -1518 -962#1 1261#11 959 -263 1391#10 325 -643#0 -1391#0 -981 -759 558#3 1384#2 267#0 762#2 -773#0 1269#0 -1533 -972#1 -977#1 322 558#0 -1427#0 668#3 -642 1398#1 -749#0 -1368#0 770#2 -613 -321 -339 987#1 675 538 390#1 -643#1 -972#0 -962#0 1370 -1433#2 -1398#3 -886 230 545 618 646 -655#0 1261#1 260 541#0 -1369#6 1345#6 1210#0 483#6 759 1432#1 -1269#7 282 344 640 -763 -991#0 258#0 -1363 -390#3 542#2 1425#1 902 756 -384 -935#5 773#1 911#0 -538 262#2 -539 -262#2 758 -649 -755#1 1511 963 1512#0 -635#2 -928#0 346 -772 755#8 438#5 1330#3 484 -956 978 -561 1391#2 605 -542#0 -543#1 1335#1 1391#1 246 661#1 -658 935#2 954 -902 550 -541#1 256 -1335#0 -1391#5 -982 1512#1 326 765 264 670 558#2 638#2 752#1 875 973 -643#3 -643#2 1362#2 -635#1 -1362#1 956 1363 265 -385 -755#0 -483#6 935#4 887 -928#4 -967 638#0 267#1 769 886 -984#1 -962#3 266 -551 -1530 485 -346 373 483#5 906 331 984#1 -887 991#1 1331#1 -542#2 674#0 1429 -1391#8 -1331#0 245 1335#4 -935#3 -1384#4 -928#3 -1369#9 668#5 990 -1432#1 -958 1196#1 438#3 -558#3 969#0 -553 -558#2 1389 647#2 -544#0 1261#8 1369#8 1330#2 1427#0 -1384#0 -645#1 1194#1 674#1 -1365 -481 965 880#1 -1425#1 -543#0 -1391#9 -754#0 -1520#0 1398#6 -635#0 -1269#1 962#2 -1372 381#1 1271 -639 410#0 -245 -976 -16 -228 -659#0 -672 -935#0 -641#1 -1335#3 -605 -647#2 -1426 -637 -669#2 1266#1 1398#7 874#1 -851 1329#3 -544#1 -644 1209 1345#4 -320 -659#1 1575 1329#1 -1333 755#1 -1433#1 983 -974 339 -392#3 -557#1 -755#8 1261#10 -969#0 -768 -970 -1391#11 1369#10 -1369#3 1255 -1600 770#1 -1269#2 -1534#1 284 -345 992#0 652#1 477 853#1 549 -770#2 993 -477 -668#4 -261 1523#0 -638#1 -993 -373 -382 -953 323 668#6 -765 754#0 -670 987#3 1520#1 544#1 878#3 655#1 -1261#5 -392#1 1335#0 666 -1398#4 -969#1 928#2 1261#6 -754#1 -265 -1369#7 1431#1 483#2 878#4 1369#2 -390#0 -1270 -1371 -731#0 641#1 -654#2 -926 1391#7 645#1 674#2 392#3 1533 1266#0 962#1 -1427#1 877 644 1369#3 643#2 638#1 645#0 -1329#0 -641#0 -663 -668#7 343 -548 1269#6 773#0 318 1362#0 -960#0 -1362#4 554 -990 300 1534#0 853#4 1266#2 557#1 -1269#6 -1391#4 768 -753 1331#2 960#0 878#2 561 1576 995 285 -1329#3 -752#0 647#1 -987#3 342 -372 -760#0 -668#6 1269#3 770#0 1391#4 -1431#0 971#1 345 1482 387 928#3 979#1 -853#2 -1376 -262#0 1384#5 483#3 -767 1369#4 656 -483#5 1195#0 -1269#4 410#2 1398#0 668#0 760#1 879 880#6 -341 -1534#0 668#2 -983 558#1 1425#0 1362#3 320 1530 -770#0 -770#1 -995 -653 -547 996 1261#12 1369#11 -1261#14 -377#2 -244 -640 654#1 -1362#3 -556 541#1 755#3 927 -927 -557#0 -668#2 543#0 -1331#2 547 -1369#5 1391#6 904#0 961 548 386#0 -656 -1271 999#0 -992#1 392#1 997 -247 1391#3 438#4 -559 -550 -980 1577 535 982 1194#0 -1369#10 382 667 878#5 659#1 1261#3 -966 -1329#2 1515 668#1 -1374 -397 319 1507 -668#1 753 -1261#12 -1332#1 1432#0 636 935#0 -1330#2 299 370 -1431#1 1371 1390 392#2 398 -1358 -344 1329#2 -1345#5 -256 1345#5 340 874#0 -853#3 -283 -1330#0 -386#1 853#3 1398#4 1261#14 321 -259 -668#3 1269#1 -1598 327 1362#1 -675 669#2 984#0 1398#5 928#1 639 -773#1 -483#0 -1261#8 -267#1 543#1 1367 1433#3 -377#1 -545 483#1 -258#1 -769 935#6 483#4 -987#2 -645#0 -758 -669#1 -1390 -662 -618 -260 -1369#1 -935#2 -1369#8 -17 -1398#1 552 -1261#11 -984#0 -378 1199 1372 -1335#1 -654#1 1391#8 -971#1 18 665 -674#1 755#2 -264 -445 876#1 648 -558#1 262#0 379 -964 -1261#4 1269#2 1335#2 -987#0 1521 935#5 1512#3 613 1195#2 972#0 880#5 -484 928#4 1369#0 1427#1 324#0 1376 771 659#0 1198 -483#3 -904#0 1385 -1345#8 664 -668#0 1267 -1269#0 546 653 -386#0 -1398#6 -853#4 385 981 -552 -377#0 -1384#2 1261#4 1345#8 -991#1 -1262 -549 377#2 643#3 663 261 -267#0 -1330#3 1398#3 -853#0 -1391#7 -973 741 -674#2 772 642 673 975 -665 -987#1 -965 987#0 -1261#0 -1369#4 1518 483#7 262#1 -1398#5 1325#6 244 -1334 -661#0 390#2 1369#7 -1515 -771 1433#2 -1369#0 -761 -666" id="11"/>
    <taz edges="1530 -928#3 -1398#7 766 -1532 982 1398#6 928#4 1398#7 299 -1535 984#0 1398#5 -773#0 1523#0 -773#1 -935#6 -765 935#6 -984#0 1523#1 935#5 773#0 -935#5 773#1 300 -1398#6 -1523#0 -982 765 -766 928#3 -1398#5 -928#4 -984#1 -1523#1 -1530 984#1" id="17"/>
    <taz edges="928#4 -1335#3 668#0 -1521 -668#0 390#3 668#2 674#0 -321 -561 668#4 -668#1 1335#4 1335#3 668#1 -928#3 561 668#5 -668#5 -674#0 -668#2 668#3 958 -1335#4 -1335#2 -1518 -390#3 321 1335#2 1518 -668#3 1521 928#3 -928#4 -668#4 382 -382" id="16"/>
    <taz edges="-887 484 1331#1 991#0 -392#1 1331#2 -1331#0 -392#0 1329#1 1329#0 990 392#2 -1331#2 -1331#1 -481 -991#0 477 -485 -392#2 392#1 483#7 -1329#0 -1329#1 481 -484 -477 887 1331#0 -990 485" id="15"/>
    <taz edges="1224#1 -292#0 861#2 1244 1233 290#0 1 289#4 357#1 1158#5 -1509#1 -290#1 413 793#3 807#2 -806#1 1157#1 290#1 348 290#4 -289#2 1223 793#0 288#1 1232#2 -822#1 315 1234#1 -290#0 -806#0 288#2 295 806#0 822#1 890#1 1235#0 907#4 792 290#3 907#2 1224#0 1158#2 1227 1509#2 -347 357#3 1158#4 -290#2 -792 1181#1 816#2 1230#2 -289#0 -890#0 -807#1 1226 -290#3 793#1 -1508 777 1230#1 292#0 292#1 -315 -1 1218 -289#3 287 806#1 908 289#3 899 1221#1 -1509#0 357#0 -793#1 -798 -1509#4 1158#6 1221#0 -890#1 562 907#1 1214#0 -289#1 815#1 807#1 -861#2 -908 907#3 -295 1220#0 -815#1 1181#0 1158#1 -1509#2 822#0 1509#4 412#0 357#2 -822#0 1147 1232#0 1158#0 1224#2 412#1 907#0 795#0 1509#1 -289#4 1234#0 1235#1 1232#3 289#1 -793#0 290#2 289#2 -288#2 1158#3 149 1237 1160#0 -292#1 1228#1 1230#0 795#1 -288#1 1160#1 -1509#3 1214#1 793#2 1162 890#0 1157#0 1181#2 -287 347 798 -807#0 1228#0 -290#4 1221#2 898 795#2 -793#2 -815#0 1509#3 -807#2 1216#1 289#0 1232#1" id="10"/>
    <taz edges="1231#2 785 1148 -722 1153#4 -802 1229#1 809 -692 -678 1201 866 678 -796 1164#2 681 707#1 408 1217 1229#2 707#0 870 -736#2 -787 -736#1 871 1203#1 805 -736#3 -694 728 -718 736#0 797 1234#1 858 -707#1 178#0 1254#1 692 280#1 -804 -707#0 1568#0 1568#1 676 736#3 1231#1 689 -177 1149#1 695 -408 1150#1 788 791 725 1180 -691 -784 -272 1153#1 -786 1153#2 1222 -686 789 1225#0 1225#1 -783 -871 1161#0 280#0 407 -800 1163#3 1153#3 -782 -809 -781 275 1567 1221#1 208#3 718 -785 1163#0 1213 -808 -706 1154#0 272 316#0 279 1221#0 1216#0 1214#0 721 722 1164#0 -687 -859 1231#0 1220#0 1161#2 779 -407 -801 804 691 -805 1165 -778 -789 784 1254#0 -736#0 1200 1149#0 1153#0 780 -728 808 1163#2 1234#0 802 787 1150#0 786 801 736#1 1154#1 1151 178#1 783 -780 -725 687 778 1215 -791 -681 1214#1 -779 -695 -797 1219 859 -316#0 -689 694 745 781 1221#2 782 796 736#2 -788 1216#1 1569" id="9"/>
    <taz edges="1498 696 717 362 1206#1 -707#2 715#1 -684#1 680 -751#1 705#1 -912#0 750#0 1208 273#1 1494#1 -278#3 701#0 707#1 1207#4 724#0 707#0 870 -736#2 278#3 1203#1 -736#3 1503 728 -683 -717 751#0 -702#0 -707#1 912#2 -709#0 1207#3 280#1 -707#0 676 701#1 736#3 -857 273#0 365#0 -177 314 1497 695 -365#0 716#0 1494#2 -750#2 -747 857 684#1 4#1 684#0 1495#3 -362 -686 -724#1 -705#1 730 702#0 -188 3 -1500 -912#2 -4#0 280#0 724#2 744#1 -366 278#2 -1494#2 1495#2 686 707#2 -684#0 705#2 -1498 275 1567 1207#1 208#3 -750#1 -1494#1 4#0 1206#2 -1494#0 -715#1 -273#0 316#0 279 274#0 1205 316#1 704 1203#0 -316#1 -365#2 -716#0 683 709#0 1214#0 -701#0 721 219 1494#0 -278#0 710#0 -707#4 -314 -715#0 1207#2 -701#1 702#1 -750#0 1202 716#1 -278#2 -730 -1495#3 -273#1 750#2 710#1 -1495#2 -744#1 -274#0 -4#1 -707#3 1149#0 188 278#1 707#4 365#2 -728 1207#0 -705#2 -219 271 -751#0 -704 178#1 744#0 1237 747 366 705#0 -724#0 -724#2 -579 -1497 -3 -702#1 1206#0 1500 -710#0 -278#1 -705#0 -695 912#0 912#1 707#3 -269 -742#4 -316#0 -710#1 -912#1 278#0 724#1 -744#0 -208#0 745 -696 1204 736#2 -716#1 269 750#1" id="8"/>
    <taz edges="-865#0 359#4 -526#0 -865#1 416#1 529 -521#11 -521#0 1321#6 -532 351 355 569#1 525#0 532 -521#5 359#0 521#4 865#3 865#5 354#1 521#10 -525#1 -865#3 -531 -502#0 -521#2 521#9 -525#0 -495#0 889#0 1321#5 439#7 440#3 240#3 1321#3 241#0 -501 -530#1 440#0 -889#0 416#0 -352#1 359#3 1423#7 -1321#1 -1321#0 -860#4 240#4 865#0 -235 521#1 -352#0 439#9 530#0 -521#6 237#0 -1435#0 865#2 860#0 521#11 -1321#5 -860#0 496 -1321#4 -416#0 352#1 -507#1 -530#0 -860#1 -521#4 1435#0 -1423#7 521#0 521#2 528 865#1 531 515 -865#2 -860#2 521#8 523 525#1 -1321#2 235 860#2 860#1 359#5 526#0 521#3 241#1 521#6 1321#2 516 521#5 -521#1 530#1 860#3 -521#3 233#1 1321#4 -523 502#1 359#1 502#2 -233#0 -502#1 -351 -502#2 1321#1 354#2 865#4 -514 -860#3 -241#0 -526#1 -521#8 352#0 -865#4 1321#0 -1321#3 530#2 505 1565 521#12 889#1 -416#1 860#4 1516#0 -1516#0 -521#12 507#1 -233#1 -528 -521#9 359#2 440#2 526#1 -521#10 1178 233#0 495#0 -515 -505 -496" id="7"/>
    <taz edges="356 359#4 529 571#2 355 248 358#1 359#0 -358#1 237#2 -383 -531 -589 -248 -353#2 439#2 439#7 440#3 358#0 360 440#0 170 359#3 527 439#6 -575#0 439#9 383 589 571#1 353#2 440#6 237#0 567 254 571#4 -575#1 1496 -360 575#0 439#4 572 237#3 -527 -358#0 531 571#3 575#1 439#0 359#5 571#0 516 233#1 359#1 -233#0 524 353#1 354#2 -514 -353#0 353#0 -233#1 359#2 440#8 588 514 440#2 517 237#1 233#0 -353#1" id="6"/>
    <taz edges="581#2 570 -611#0 569#1 -581#0 -895#0 -872#0 -577#1 -589 375#1 688 590#2 -564#5 594#1 -455 170 -873 -595#5 1185#1 -251 -575#0 -581#5 589 394#3 1342 -375#1 -564#6 -612#0 590#1 -723 254 1339#3 578 394#5 455 863#1 872#1 572 -601 566#1 -872#1 -580 1606#1 564#6 -394#1 1186#1 1359 394#0 864 604 -577#0 1159 1355#1 581#6 1605 625#1 685#1 369#1 1506 595#4 1183 -685#3 270 863#5 1502#2 617 568 -603#3 240#1 1187#1 606#2 -606#2 581#0 1341 -581#1 571#2 1184#1 594#4 1156 394#4 698 577#0 699 -576 -592#1 394#1 1191 595#0 -634 -617 631 440#6 567 922#8 -270 571#4 -564#0 1496 -585#2 575#0 1187#0 -616 595#3 -1498 -1355#1 -603#1 571#3 -604 574#2 -1607 -564#2 -591 -599 1566 -688 -698 616 -1606#1 -606#1 -1605 872#0 -585#0 594#0 -595#3 1185#0 564#1 -368#3 -394#2 -568 566#2 1339#1 -606#0 581#4 -590#1 588 603#1 585#2 590#0 581#5 394#2 1498 583 592#0 594#3 595#1 680 577#1 564#2 -594#4 564#5 -582 -614 1185#2 -375#0 -569#0 606#0 241#0 -603#0 -615 -631 -628 1186#0 -570 569#0 -626#1 585#1 -564#1 -564#4 -394#4 571#1 -863#5 -581#3 602 251 863#4 -864 -575#1 -630 -1342 -566#0 -594#1 -594#2 -863#4 -1355#2 439#0 -394#3 585#0 -394#0 241#1 571#0 685#2 -581#4 566#0 -603#2 611#0 564#0 630 628 595#5 612#1 873 -1502#3 582 599 603#3 -394#5 1187#2 368#3 -1345#0 1502#1 -592#0 -699 1182#1 1184#0 594#2 -195 1339#0 685#0 -625#0 591 -1506 595#2 -564#3 626#1 581#3 863#2 564#3 -583 -590#2 592#1 601 576 -612#1 -1502#2 -581#6 -863#2 625#0 -626#0 -595#0 1182#2 1339#2 240#2 -595#1 564#4 -602 1182#0 611#1 581#1 -595#4 -578 -574#2 -685#0 -566#2 -685#2 614 575#1 -574#1 -685#1 1355#2 -595#2 603#2 -1359 574#1 -863#1 -566#1 1607 -1355#0 580 685#3 -241#0 -863#0 1355#0 -581#2 -611#1 1565 -579 1166 -590#0 1502#3 615 606#1 1187#3 -594#0 375#0 -1341 -585#1 440#8 -594#3 1187#4 634 -922#8" id="5"/>
    <taz edges="-821#0 -755#3 1238 -292#0 -742#3 790#3 861#2 -751#1 -810 1 1564 810 824#0 -817 389 -1269#3 -755#5 -912#0 -749#2 755#3 936#7 816#0 348 742#1 -755#2 790#6 -1271 742#4 -751#4 751#0 1212#0 -821#1 -936#7 295 -1269#1 -755#4 912#2 1271 790#4 -755#6 1212#1 -790#3 294#1 -751#3 1242#2 755#1 755#6 283 936#6 -755#8 -283 -936#6 742#0 -933#0 -751#5 -1269#2 -742#0 790#1 1269#1 292#0 292#1 -1 -861#1 -373 -790#2 294#3 751#5 -751#2 933#0 -790#4 790#0 1269#4 -790#0 -790#5 -824#0 755#4 861#0 -861#2 710#0 -295 755#2 1242#1 751#6 821#2 751#2 1269#2 -389 1239 294#0 710#1 -755#1 755#0 755#8 -742#1 -861#0 -751#0 -790#1 821#0 -816#0 -292#1 -751#6 1237 742#3 751#3 817 751#1 790#5 -710#0 294#2 755#5 1269#3 912#0 912#1 -742#4 -710#1 749#2 751#4 755#7 -755#0 861#1 -755#7 790#2 1242#0 821#1 373 -1269#4" id="4"/>
    <taz edges="-192 -712 696 -369#0 715#1 709#1 731#2 -720 -749#2 -746#1 -869#2 -746#0 869#0 -749#1 746#0 1503 1495#1 -709#0 -709#1 -869#0 -731#1 365#0 731#5 1499#2 1495#3 700 -1495#0 -869#1 1499#3 790#1 720 1495#2 731#4 746#1 712 731#3 749#1 -700 -749#0 790#0 -715#1 -790#0 709#0 -715#0 -731#0 -731#5 1495#0 1499#0 726 715#0 -1495#3 -726 1388 -1495#1 -1495#2 1385 869#1 1499#1 869#2 -790#1 276 -731#2 -731#3 1421 731#1 -276 749#2 -696" id="3"/>
    <taz edges="-192 -369#0 369#1 274#1 274#0 1501 -274#1 -1501 -195 685#0 -368#0 368#0 -274#0" id="2"/>